Version 4
SHEET 1 1140 680
WIRE 80 -512 -592 -512
WIRE 800 -512 160 -512
WIRE 368 -384 336 -384
WIRE 576 -384 448 -384
WIRE 624 -384 576 -384
WIRE 800 -384 800 -512
WIRE 800 -384 688 -384
WIRE 1008 -384 800 -384
WIRE 576 -368 576 -384
WIRE -592 -336 -592 -512
WIRE 32 -336 -592 -336
WIRE 336 -336 336 -384
WIRE 336 -336 256 -336
WIRE 1008 -320 1008 -384
WIRE 32 -240 -432 -240
WIRE 512 -240 256 -240
WIRE 576 -240 576 -288
WIRE 576 -240 512 -240
WIRE 784 -240 656 -240
WIRE 960 -240 864 -240
WIRE 1008 -208 1008 -224
WIRE 1008 -208 992 -208
WIRE 656 -176 656 -240
WIRE 656 -176 464 -176
WIRE -592 -144 -592 -336
WIRE -592 -144 -832 -144
WIRE 32 -144 -592 -144
WIRE 464 -144 464 -176
WIRE 464 -144 256 -144
WIRE 512 -144 512 -240
WIRE 576 -144 576 -240
WIRE 656 -144 576 -144
WIRE 656 -112 656 -144
WIRE -592 -80 -592 -144
WIRE -432 -80 -432 -240
WIRE -832 -64 -832 -144
WIRE 32 -48 -288 -48
WIRE 512 -48 512 -80
WIRE 512 -48 256 -48
WIRE 656 -48 640 -48
WIRE 672 -48 656 -48
WIRE 992 -32 992 -208
WIRE -432 -16 -592 -16
WIRE -288 -16 -288 -48
WIRE -288 -16 -432 -16
WIRE -832 32 -832 16
WIRE -592 32 -592 -16
WIRE -592 32 -832 32
WIRE -144 48 -256 48
WIRE 32 48 -64 48
WIRE 576 48 256 48
WIRE 816 48 704 48
WIRE 944 48 896 48
WIRE -832 64 -832 32
WIRE 576 64 576 48
WIRE -256 96 -256 48
WIRE -192 96 -256 96
WIRE -256 128 -256 96
WIRE -192 144 -192 96
WIRE 32 144 -192 144
WIRE 704 144 704 48
WIRE 704 144 256 144
WIRE 672 224 672 -48
WIRE 784 224 672 224
WIRE 1120 224 784 224
WIRE 32 240 -192 240
WIRE 576 240 576 128
WIRE 576 240 256 240
WIRE 784 256 784 224
WIRE -192 368 -192 240
WIRE 784 368 784 336
WIRE 784 368 -192 368
WIRE 784 400 784 368
WIRE -256 512 -256 208
WIRE 576 512 576 240
WIRE 576 512 -256 512
WIRE 784 512 784 480
WIRE 784 512 576 512
WIRE 1120 512 784 512
FLAG -832 64 0
SYMBOL AutoGenerated\\IRS20954 144 -48 R0
SYMATTR InstName X1
SYMBOL voltage -832 -80 R0
SYMATTR InstName V1
SYMBOL cap -608 -80 R0
SYMATTR InstName C1
SYMBOL cap -448 -80 R0
SYMATTR InstName C2
SYMBOL cap 560 64 R0
SYMATTR InstName C3
SYMBOL cap 496 -144 R0
SYMATTR InstName C4
SYMBOL res 176 -528 R90
WINDOW 0 0 56 VBottom 2
WINDOW 3 32 56 VTop 2
SYMATTR InstName R1
SYMBOL res 464 -400 R90
WINDOW 0 0 56 VBottom 2
WINDOW 3 32 56 VTop 2
SYMATTR InstName R2
SYMBOL res 592 -272 R180
WINDOW 0 36 76 Left 2
WINDOW 3 36 40 Left 2
SYMATTR InstName R3
SYMBOL diode 624 -368 R270
WINDOW 0 32 32 VTop 2
WINDOW 3 0 32 VBottom 2
SYMATTR InstName D1
SYMBOL diode 1136 -304 R180
WINDOW 0 24 64 Left 2
WINDOW 3 24 0 Left 2
SYMATTR InstName D2
SYMBOL diode 1136 48 R180
WINDOW 0 24 64 Left 2
WINDOW 3 24 0 Left 2
SYMATTR InstName D3
SYMBOL res -48 32 R90
WINDOW 0 0 56 VBottom 2
WINDOW 3 32 56 VTop 2
SYMATTR InstName R4
SYMBOL res -240 224 R180
WINDOW 0 36 76 Left 2
WINDOW 3 36 40 Left 2
SYMATTR InstName R5
SYMBOL res 768 384 R0
SYMATTR InstName R6
SYMBOL res 768 240 R0
SYMATTR InstName R7
SYMBOL nmos 944 -32 R0
SYMATTR InstName M1
SYMBOL nmos 960 -320 R0
SYMATTR InstName M2
SYMBOL res 912 32 R90
WINDOW 0 0 56 VBottom 2
WINDOW 3 32 56 VTop 2
SYMATTR InstName R8
SYMBOL res 880 -256 R90
WINDOW 0 0 56 VBottom 2
WINDOW 3 32 56 VTop 2
SYMATTR InstName R9
SYMBOL diode 672 -48 R180
WINDOW 0 24 64 Left 2
WINDOW 3 24 0 Left 2
SYMATTR InstName D4
