Version 4
SHEET 1 3216 864
WIRE -384 -352 -384 -400
WIRE -224 -352 -224 -400
WIRE 48 -352 48 -400
WIRE -384 -208 -384 -272
WIRE -224 -208 -224 -272
WIRE 48 -208 48 -272
WIRE -240 48 -288 48
WIRE 80 48 -16 48
WIRE 96 48 80 48
WIRE 272 48 176 48
WIRE 480 48 272 48
WIRE 704 48 704 -80
WIRE 704 48 544 48
WIRE 272 64 272 48
WIRE -240 144 -288 144
WIRE 176 144 -16 144
WIRE 272 144 176 144
WIRE 704 160 704 48
WIRE 272 176 272 144
WIRE 80 192 80 48
WIRE -240 240 -368 240
WIRE 480 240 -16 240
WIRE 656 240 560 240
WIRE -368 256 -368 240
WIRE 176 256 176 144
WIRE 272 288 272 256
WIRE -368 336 -368 320
WIRE -240 336 -368 336
WIRE 80 336 80 272
WIRE 80 336 -16 336
WIRE 176 336 176 320
WIRE 176 336 80 336
WIRE 640 336 176 336
WIRE 704 336 704 256
WIRE 704 336 640 336
WIRE 912 336 704 336
WIRE -368 352 -368 336
WIRE 912 352 912 336
WIRE -320 432 -368 432
WIRE -240 432 -320 432
WIRE 80 432 -16 432
WIRE 176 432 80 432
WIRE 272 432 272 352
WIRE 272 432 176 432
WIRE 304 432 272 432
WIRE 704 448 704 336
WIRE 704 464 704 448
WIRE -368 528 -368 512
WIRE -240 528 -368 528
WIRE 480 528 -16 528
WIRE 656 528 560 528
WIRE 176 560 176 432
WIRE 912 576 912 432
WIRE 304 608 304 432
WIRE -240 624 -288 624
WIRE 176 624 -16 624
WIRE 80 640 80 432
WIRE -288 736 -288 624
WIRE 80 736 80 720
WIRE 80 736 -288 736
WIRE 80 752 80 736
WIRE -368 848 -368 608
WIRE -368 848 -400 848
WIRE 80 848 80 832
WIRE 80 848 -368 848
WIRE 176 848 176 624
WIRE 176 848 80 848
WIRE 304 848 304 688
WIRE 304 848 176 848
WIRE 704 848 704 544
WIRE 704 848 304 848
FLAG -400 848 0
FLAG -320 432 Vref
FLAG 912 576 0
FLAG 640 336 Vs
FLAG -384 -208 0
FLAG -384 -400 VDD1
FLAG 704 48 VDD1
FLAG -224 -208 0
FLAG -224 -400 VDD
FLAG -288 48 VDD
FLAG 48 -208 0
FLAG 48 -400 Vin1
FLAG -288 144 Vin1
FLAG -368 352 0
SYMBOL IRS20954 -128 336 R0
SYMATTR InstName X1
SYMBOL cap 160 256 R0
SYMATTR InstName C1
SYMATTR Value 22n
SYMBOL voltage 48 -368 R0
WINDOW 0 -44 41 Bottom 2
WINDOW 3 147 94 Right 2
WINDOW 123 0 0 Left 2
WINDOW 39 0 0 Left 2
SYMATTR InstName V1
SYMATTR Value PULSE(0 5 0 1n 1n 5u 20u)
SYMBOL cap -384 256 R0
SYMATTR InstName Ct1
SYMATTR Value 10p
SYMBOL voltage -224 -368 R0
SYMATTR InstName V2
SYMATTR Value 15
SYMBOL cap 160 560 R0
SYMATTR InstName C2
SYMATTR Value 30n
SYMBOL nmos 656 160 R0
SYMATTR InstName M1
SYMATTR Value irf630
SYMATTR Prefix X
SYMBOL nmos 656 448 R0
SYMATTR InstName M2
SYMATTR Value irf630
SYMATTR Prefix X
SYMBOL zener 288 352 R180
WINDOW 0 24 64 Left 2
WINDOW 3 24 0 Left 2
SYMATTR InstName D1
SYMATTR Value MUR460
SYMBOL res 896 336 R0
SYMATTR InstName RL1
SYMATTR Value 50
SYMBOL voltage 304 592 R0
SYMATTR InstName V3
SYMATTR Value 15
SYMBOL res 256 160 R0
SYMATTR InstName RD1
SYMATTR Value 10
SYMBOL res 576 224 R90
WINDOW 0 0 56 VBottom 2
WINDOW 3 32 56 VTop 2
SYMATTR InstName RG1
SYMATTR Value 2.2
SYMBOL res 576 512 R90
WINDOW 0 0 56 VBottom 2
WINDOW 3 32 56 VTop 2
SYMATTR InstName RG2
SYMATTR Value 2.2
SYMBOL res 64 176 R0
SYMATTR InstName R1
SYMATTR Value 4.6k
SYMBOL res 192 32 R90
WINDOW 0 0 56 VBottom 2
WINDOW 3 32 56 VTop 2
SYMATTR InstName R2
SYMATTR Value 5.4k
SYMBOL res 288 160 R180
WINDOW 0 36 76 Left 2
WINDOW 3 36 40 Left 2
SYMATTR InstName R3
SYMATTR Value 10k
SYMBOL diode 480 64 R270
WINDOW 0 32 32 VTop 2
WINDOW 3 0 32 VBottom 2
SYMATTR InstName D2
SYMATTR Value BAV21W
SYMBOL voltage -384 -368 R0
SYMATTR InstName V4
SYMATTR Value 60
SYMBOL res -384 512 R0
SYMATTR InstName R4
SYMATTR Value 4k
SYMBOL res -384 416 R0
SYMATTR InstName R5
SYMATTR Value 6k
SYMBOL res 64 624 R0
SYMATTR InstName R6
SYMATTR Value 3.3k
SYMBOL res 64 736 R0
SYMATTR InstName R7
SYMATTR Value 8.2k
TEXT -1408 -24 Left 2 ;Vb Zos: 220V\nVddZos: 210V\nVccZ: 20.2V\nVb Z: 20.2V\nVddZ: 10.4V\nTd on: 90ns+Tdt\nTd off: 90ns\nTsd:  < 1us\nTr on: 15ns\nTf off: 10ns\nTdt: 15/25/35/45ns\nVdt: .89/.57/.36/.23\nVHin: 2.3\nVLin: 1.5\nVHsat: 1.2\nRos: 5e6\nRb: 12k\nRcc: 7k\nRdd: 22k\nRin: 1e6\nUVL Vcc: 8.9/8.7V\nUVL Vb:  8.5/8.3V\nUVL Vdd: 8.7/8.2V\nIo+: 1.0A\nIo-: 1.2A\nVoc: 70/30 %Vdd\nIoc: +/-100ua\nOCH: 1.2Vos\n 300ns filter\nOCL: 0.0Vos\n 200ns filter
TEXT -1568 -376 Left 2 !.tran 0 700u 500u
TEXT -1568 -344 Left 2 !.include irf630.lib
TEXT -1560 -248 Left 2 !.model MUR460 D(Is=149n Rs=.0384 N=2 EG=1.285 XTI=.5 BV=800 \n+ IBV=1e-05 Cjo=126.4p Vj=1.34 M=.52 tt=44.4n Iave=4 Vpk=600 mfg=GI type=silicon)
TEXT -1552 -184 Left 2 !.MODEL BAV21W D  ( IS=1.09u RS=0.105 BV=200 IBV=100n\n+ CJO=5.00p  M=0.333 N=3.29 TT=72.0n )
