Version 4
SHEET 1 2224 816
WIRE 1200 -176 -48 -176
WIRE -48 -48 -48 -176
WIRE -48 -48 -384 -48
WIRE 80 -48 -48 -48
WIRE 256 -48 160 -48
WIRE 576 -48 480 -48
WIRE -384 16 -384 -48
WIRE 256 48 -96 48
WIRE 672 48 480 48
WIRE 768 48 672 48
WIRE -96 64 -96 48
WIRE 1200 64 1200 -176
WIRE 768 80 768 48
WIRE 256 144 128 144
WIRE 976 144 480 144
WIRE 1152 144 1056 144
WIRE 128 160 128 144
WIRE 672 160 672 48
WIRE 768 192 768 160
WIRE -384 240 -384 96
WIRE -96 240 -96 144
WIRE -96 240 -384 240
WIRE 128 240 128 224
WIRE 128 240 -96 240
WIRE 256 240 128 240
WIRE 672 240 672 224
WIRE 672 240 480 240
WIRE 1136 240 672 240
WIRE 1200 240 1200 160
WIRE 1200 240 1136 240
WIRE 1408 240 1200 240
WIRE 1408 256 1408 240
WIRE -384 336 -384 240
WIRE 256 336 176 336
WIRE 672 336 480 336
WIRE 768 336 768 256
WIRE 768 336 672 336
WIRE 800 336 768 336
WIRE 1200 352 1200 240
WIRE 1200 368 1200 352
WIRE 1408 400 1408 336
WIRE 256 432 128 432
WIRE 976 432 480 432
WIRE 1152 432 1056 432
WIRE 128 448 128 432
WIRE 672 464 672 336
WIRE 800 512 800 336
WIRE 256 528 208 528
WIRE 672 528 480 528
WIRE 208 640 208 528
WIRE 208 752 208 720
WIRE 208 752 96 752
WIRE 672 752 672 528
WIRE 672 752 208 752
WIRE 800 752 800 592
WIRE 800 752 672 752
WIRE 1200 752 1200 448
WIRE 1200 752 800 752
FLAG -384 336 0
FLAG 96 752 0
FLAG 128 528 0
FLAG 176 336 Vref
FLAG 576 -48 0
FLAG 1408 480 0
FLAG 1136 240 Vs
SYMBOL IRS20954 368 240 R0
SYMATTR InstName X1
SYMBOL cap 656 160 R0
SYMATTR InstName C1
SYMATTR Value 10µ
SYMBOL voltage -96 48 R0
WINDOW 0 -44 41 Bottom 2
WINDOW 3 147 94 Right 2
WINDOW 123 0 0 Left 2
WINDOW 39 0 0 Left 2
SYMATTR InstName V1
SYMATTR Value PULSE(0 5 0 1n 1n 5u 20u)
SYMBOL cap 112 160 R0
SYMATTR InstName Ct
SYMATTR Value 10p
SYMBOL voltage -384 0 R0
SYMATTR InstName V2
SYMATTR Value 60
SYMBOL cap 656 464 R0
SYMATTR InstName C2
SYMATTR Value 10µ
SYMBOL nmos 1152 64 R0
SYMATTR InstName M1
SYMATTR Value irf630
SYMATTR Prefix X
SYMBOL nmos 1152 352 R0
SYMATTR InstName M2
SYMATTR Value irf630
SYMATTR Prefix X
SYMBOL zener 784 256 R180
WINDOW 0 24 64 Left 2
WINDOW 3 24 0 Left 2
SYMATTR InstName D2
SYMATTR Value UMZ22K
SYMBOL res 1392 240 R0
SYMATTR InstName R8
SYMATTR Value 10
SYMBOL voltage 128 432 R0
SYMATTR InstName V3
SYMATTR Value 1.8
SYMBOL voltage 208 624 R0
SYMATTR InstName V4
SYMATTR Value 15
SYMBOL res 176 -64 R90
WINDOW 0 0 56 VBottom 2
WINDOW 3 32 56 VTop 2
SYMATTR InstName R4
SYMATTR Value 1.5k
SYMBOL voltage 800 496 R0
SYMATTR InstName V5
SYMATTR Value 20
SYMBOL res 752 64 R0
SYMATTR InstName R1
SYMATTR Value 10
SYMBOL voltage 1408 384 R0
SYMATTR InstName V6
SYMATTR Value 30
SYMBOL res 1072 128 R90
WINDOW 0 0 56 VBottom 2
WINDOW 3 32 56 VTop 2
SYMATTR InstName R2
SYMATTR Value 2.2
SYMBOL res 1072 416 R90
WINDOW 0 0 56 VBottom 2
WINDOW 3 32 56 VTop 2
SYMATTR InstName R3
SYMATTR Value 2.2
TEXT -912 -120 Left 2 ;Vb Zos: 220V\nVddZos: 210V\nVccZ: 20.2V\nVb Z: 20.2V\nVddZ: 10.4V\nTd on: 90ns+Tdt\nTd off: 90ns\nTsd:  < 1us\nTr on: 15ns\nTf off: 10ns\nTdt: 15/25/35/45ns\nVdt: .89/.57/.36/.23\nVHin: 2.3\nVLin: 1.5\nVHsat: 1.2\nRos: 5e6\nRb: 12k\nRcc: 7k\nRdd: 22k\nRin: 1e6\nUVL Vcc: 8.9/8.7V\nUVL Vb:  8.5/8.3V\nUVL Vdd: 8.7/8.2V\nIo+: 1.0A\nIo-: 1.2A\nVoc: 70/30 %Vdd\nIoc: +/-100ua\nOCH: 1.2Vos\n 300ns filter\nOCL: 0.0Vos\n 200ns filter
TEXT 1368 -200 Left 2 !.tran 0 700u 500u
TEXT -1192 608 Left 2 !.MODEL BAV21W D  ( IS=1.09u RS=0.105 BV=200 IBV=100n\n+ CJO=5.00p  M=0.333 N=3.29 TT=72.0n )
TEXT 1368 -168 Left 2 !.include irf630.lib.txt
TEXT 1688 8 Left 2 !.MODEL S310FA D\n+ IS=1.096e-08       N=1.0             RS=1.230e-1\n+ ISR=1.7e-8         NR=1.5            TRS1=1.05e-6\n+ TRS2=1.5e-8        CJO=2.2854e-10    M=0.47\n+ VJ=0.44            BV=110            IBV=2.5e-4\n+ TT=7.28e-9         XTI=-12.3         EG=1.16
