Version 4
SHEET 1 3920 816
WIRE 1408 -176 1200 -176
WIRE 1408 -128 1408 -176
WIRE 256 -48 -384 -48
WIRE 576 -48 480 -48
WIRE 592 -48 576 -48
WIRE 768 -48 672 -48
WIRE 976 -48 768 -48
WIRE 1200 -48 1200 -176
WIRE 1200 -48 1040 -48
WIRE 768 -32 768 -48
WIRE -384 16 -384 -48
WIRE 1408 16 1408 -48
WIRE 256 48 -96 48
WIRE 672 48 480 48
WIRE 768 48 672 48
WIRE -96 64 -96 48
WIRE 1200 64 1200 -48
WIRE 768 80 768 48
WIRE 576 96 576 -48
WIRE 256 144 128 144
WIRE 976 144 480 144
WIRE 1152 144 1056 144
WIRE 128 160 128 144
WIRE 672 160 672 48
WIRE 768 192 768 160
WIRE -384 240 -384 96
WIRE -96 240 -96 144
WIRE -96 240 -384 240
WIRE 128 240 128 224
WIRE 128 240 -96 240
WIRE 256 240 128 240
WIRE 576 240 576 176
WIRE 576 240 480 240
WIRE 672 240 672 224
WIRE 672 240 576 240
WIRE 1136 240 672 240
WIRE 1200 240 1200 160
WIRE 1200 240 1136 240
WIRE 1408 240 1200 240
WIRE 1408 256 1408 240
WIRE -384 336 -384 240
WIRE 176 336 128 336
WIRE 256 336 176 336
WIRE 576 336 480 336
WIRE 672 336 576 336
WIRE 768 336 768 256
WIRE 768 336 672 336
WIRE 800 336 768 336
WIRE 1200 352 1200 240
WIRE 1200 368 1200 352
WIRE 128 432 128 416
WIRE 256 432 128 432
WIRE 976 432 480 432
WIRE 1152 432 1056 432
WIRE 672 464 672 336
WIRE 1408 480 1408 336
WIRE 800 512 800 336
WIRE 256 528 208 528
WIRE 672 528 480 528
WIRE 576 544 576 336
WIRE 208 640 208 528
WIRE 576 640 576 624
WIRE 576 640 208 640
WIRE 576 656 576 640
WIRE 128 752 128 512
WIRE 128 752 96 752
WIRE 576 752 576 736
WIRE 576 752 128 752
WIRE 672 752 672 528
WIRE 672 752 576 752
WIRE 800 752 800 592
WIRE 800 752 672 752
WIRE 1200 752 1200 448
WIRE 1200 752 800 752
FLAG -384 336 0
FLAG 96 752 0
FLAG 176 336 Vref
FLAG 1408 480 0
FLAG 1136 240 Vs
FLAG 1408 16 0
SYMBOL IRS20954 368 240 R0
SYMATTR InstName X1
SYMBOL cap 656 160 R0
SYMATTR InstName C1
SYMATTR Value 22n
SYMBOL voltage -96 48 R0
WINDOW 0 -44 41 Bottom 2
WINDOW 3 147 94 Right 2
WINDOW 123 0 0 Left 2
WINDOW 39 0 0 Left 2
SYMATTR InstName V1
SYMATTR Value PULSE(-5 5 0 1n 1n 5u 20u)
SYMBOL cap 112 160 R0
SYMATTR InstName Ct
SYMATTR Value 10p
SYMBOL voltage -384 0 R0
SYMATTR InstName V2
SYMATTR Value 15
SYMBOL cap 656 464 R0
SYMATTR InstName C2
SYMATTR Value 30n
SYMBOL nmos 1152 64 R0
SYMATTR InstName M1
SYMATTR Value irf630
SYMATTR Prefix X
SYMBOL nmos 1152 352 R0
SYMATTR InstName M2
SYMATTR Value irf630
SYMATTR Prefix X
SYMBOL zener 784 256 R180
WINDOW 0 24 64 Left 2
WINDOW 3 24 0 Left 2
SYMATTR InstName D2
SYMATTR Value MUR460
SYMBOL res 1392 240 R0
SYMATTR InstName RL
SYMATTR Value 50
SYMBOL voltage 800 496 R0
SYMATTR InstName V5
SYMATTR Value 15
SYMBOL res 752 64 R0
SYMATTR InstName RD
SYMATTR Value 10
SYMBOL res 1072 128 R90
WINDOW 0 0 56 VBottom 2
WINDOW 3 32 56 VTop 2
SYMATTR InstName RG1
SYMATTR Value 2.2
SYMBOL res 1072 416 R90
WINDOW 0 0 56 VBottom 2
WINDOW 3 32 56 VTop 2
SYMATTR InstName RG2
SYMATTR Value 2.2
SYMBOL res 560 80 R0
SYMATTR InstName R3
SYMATTR Value 4.6k
SYMBOL res 688 -64 R90
WINDOW 0 0 56 VBottom 2
WINDOW 3 32 56 VTop 2
SYMATTR InstName R2
SYMATTR Value 5.4k
SYMBOL res 784 64 R180
WINDOW 0 36 76 Left 2
WINDOW 3 36 40 Left 2
SYMATTR InstName R1
SYMATTR Value 10k
SYMBOL diode 976 -32 R270
WINDOW 0 32 32 VTop 2
WINDOW 3 0 32 VBottom 2
SYMATTR InstName D3
SYMATTR Value BAV21W
SYMBOL voltage 1408 -144 R0
SYMATTR InstName V6
SYMATTR Value 60
SYMBOL res 112 416 R0
SYMATTR InstName R5
SYMATTR Value 4k
SYMBOL res 112 320 R0
SYMATTR InstName R4
SYMATTR Value 6k
SYMBOL res 560 528 R0
SYMATTR InstName R6
SYMATTR Value 3.3k
SYMBOL res 560 640 R0
SYMATTR InstName R7
SYMATTR Value 8.2k
TEXT -912 -120 Left 2 ;Vb Zos: 220V\nVddZos: 210V\nVccZ: 20.2V\nVb Z: 20.2V\nVddZ: 10.4V\nTd on: 90ns+Tdt\nTd off: 90ns\nTsd:  < 1us\nTr on: 15ns\nTf off: 10ns\nTdt: 15/25/35/45ns\nVdt: .89/.57/.36/.23\nVHin: 2.3\nVLin: 1.5\nVHsat: 1.2\nRos: 5e6\nRb: 12k\nRcc: 7k\nRdd: 22k\nRin: 1e6\nUVL Vcc: 8.9/8.7V\nUVL Vb:  8.5/8.3V\nUVL Vdd: 8.7/8.2V\nIo+: 1.0A\nIo-: 1.2A\nVoc: 70/30 %Vdd\nIoc: +/-100ua\nOCH: 1.2Vos\n 300ns filter\nOCL: 0.0Vos\n 200ns filter
TEXT 2008 -168 Left 2 !.tran 0 700u 500u
TEXT 2008 -136 Left 2 !.include irf630.lib.txt
TEXT 2024 -16 Left 2 !.model MUR460 D(Is=149n Rs=.0384 N=2 EG=1.285 XTI=.5 BV=800 IBV=1e-05 Cjo=126.4p Vj=1.34 M=.52 tt=44.4n Iave=4 Vpk=600 mfg=GI type=silicon)
TEXT 2024 24 Left 2 !.MODEL BAV21W D  ( IS=1.09u RS=0.105 BV=200 IBV=100n\n+ CJO=5.00p  M=0.333 N=3.29 TT=72.0n )
