Version 4
SHEET 1 880 680
WIRE 352 64 288 64
WIRE 608 64 432 64
WIRE -448 128 -480 128
WIRE 608 176 608 64
WIRE 608 176 432 176
WIRE 128 192 48 192
WIRE 288 192 288 64
WIRE 288 192 208 192
WIRE 352 192 288 192
WIRE 48 224 48 192
WIRE 352 224 288 224
WIRE 368 224 352 224
WIRE 144 336 48 336
WIRE 288 336 288 224
WIRE 288 336 224 336
WIRE 448 336 288 336
WIRE 608 336 608 176
WIRE 608 336 528 336
WIRE 288 368 288 336
WIRE 288 448 288 432
FLAG -224 368 0
FLAG -112 368 0
FLAG -224 288 V+
FLAG -112 288 V-
FLAG 48 416 0
FLAG 432 240 V+
FLAG 432 208 V-
FLAG 288 448 0
FLAG 48 224 0
FLAG -448 208 0
FLAG -560 128 0
SYMBOL voltage -224 272 R0
WINDOW 123 0 0 Left 0
WINDOW 39 0 0 Left 0
SYMATTR InstName V1
SYMATTR Value 20
SYMBOL voltage -112 272 R0
WINDOW 123 0 0 Left 0
WINDOW 39 0 0 Left 0
SYMATTR InstName V2
SYMATTR Value -20
SYMBOL res 448 48 R90
WINDOW 0 0 56 VBottom 2
WINDOW 3 32 56 VTop 2
SYMATTR InstName R2
SYMATTR Value 10k
SYMBOL voltage -448 112 R0
WINDOW 123 0 0 Left 0
WINDOW 39 0 0 Left 0
SYMATTR InstName V3
SYMATTR Value PULSE(0 1 100u 1n 1n 50u 100u 1)
SYMBOL AutoGenerated\\LM741_NS 384 208 M180
WINDOW 0 13 -62 Bottom 2
SYMATTR InstName U1
SYMBOL cap 272 368 R0
SYMATTR InstName C1
SYMATTR Value 0.1µ
SYMBOL res 544 320 R90
WINDOW 0 0 56 VBottom 2
WINDOW 3 32 56 VTop 2
SYMATTR InstName R1
SYMATTR Value 10k
SYMBOL res 240 320 R90
WINDOW 0 0 56 VBottom 2
WINDOW 3 32 56 VTop 2
SYMATTR InstName R3
SYMATTR Value 10k
SYMBOL res 224 176 R90
WINDOW 0 0 56 VBottom 2
WINDOW 3 32 56 VTop 2
SYMATTR InstName R4
SYMATTR Value 10k
SYMBOL res -464 112 R90
WINDOW 0 0 56 VBottom 2
WINDOW 3 32 56 VTop 2
SYMATTR InstName R5
SYMATTR Value 1k
SYMBOL voltage 48 320 R0
WINDOW 123 0 0 Left 0
WINDOW 39 0 0 Left 0
SYMATTR InstName V4
SYMATTR Value PULSE(-0.1 0.1 10m 1n 1n 10m 20m)
TEXT -256 392 Left 2 !.tran 0 5000m 0 0.1m
