Version 4
SHEET 1 1060 680
WIRE -160 192 -240 192
WIRE -240 208 -240 192
WIRE 16 208 -96 208
WIRE 112 208 16 208
WIRE 304 208 192 208
WIRE 432 208 304 208
WIRE -160 224 -208 224
WIRE 608 224 496 224
WIRE 432 240 400 240
WIRE 16 304 16 208
WIRE 304 304 304 208
WIRE -512 336 -512 320
WIRE -368 336 -368 320
WIRE 400 352 400 240
WIRE -512 496 -512 416
WIRE -368 496 -368 416
WIRE -208 496 -208 224
WIRE 16 496 16 384
WIRE 16 496 -208 496
WIRE 112 496 16 496
WIRE 304 496 304 368
WIRE 304 496 192 496
WIRE 608 496 608 224
WIRE 608 496 304 496
FLAG -240 208 0
FLAG -128 176 Vcc+
FLAG -128 240 Vcc-
FLAG -512 496 0
FLAG -368 496 0
FLAG -512 320 v+
FLAG -368 320 v-
FLAG 400 352 0
FLAG 464 192 Vcc+
FLAG 464 256 Vcc-
FLAG 16 496 A
FLAG 16 208 Vo1
FLAG 608 224 Vo2
SYMBOL res 0 288 R0
WINDOW 0 -37 56 Left 2
WINDOW 3 -293 -504 Left 2
SYMATTR InstName RF
SYMATTR Value 28k
SYMBOL res 208 192 R90
WINDOW 0 0 56 VBottom 2
WINDOW 3 -435 415 VTop 2
SYMATTR InstName R2
SYMATTR Value 13.1k
SYMBOL res 208 480 R90
WINDOW 0 0 56 VBottom 2
WINDOW 3 -601 493 VTop 2
SYMATTR InstName R1
SYMATTR Value 10k
SYMBOL cap 288 304 R0
WINDOW 0 -42 -5 Left 2
WINDOW 3 -505 -514 Left 2
SYMATTR InstName C1
SYMATTR Value 0.01µ
SYMBOL AutoGenerated/TL074 -368 -64 M180
SYMATTR InstName U2
SYMBOL voltage -512 320 R0
WINDOW 123 0 0 Left 2
WINDOW 39 0 0 Left 2
SYMATTR InstName V1
SYMATTR Value 14.4
SYMBOL voltage -368 320 R0
WINDOW 123 0 0 Left 2
WINDOW 39 0 0 Left 2
SYMATTR InstName V2
SYMATTR Value -14.4
SYMBOL Opamps/opamp2 -128 144 R0
SYMATTR InstName U1
SYMATTR Value TL074
SYMBOL Opamps/opamp2 464 160 R0
SYMATTR InstName U2
SYMATTR Value TL074
TEXT -488 112 Left 2 !.tran 2m
