Version 4
SHEET 1 1060 680
WIRE 1056 192 976 192
WIRE 16 208 -96 208
WIRE 112 208 16 208
WIRE 304 208 192 208
WIRE 912 208 304 208
WIRE -160 224 -240 224
WIRE -240 240 -240 224
WIRE 912 240 624 240
WIRE -160 256 -208 256
WIRE -512 336 -512 320
WIRE -368 336 -368 320
WIRE 16 336 16 208
WIRE 304 352 304 208
WIRE 624 352 624 240
WIRE -512 496 -512 416
WIRE -368 496 -368 416
WIRE -208 496 -208 256
WIRE 16 496 16 416
WIRE 16 496 -208 496
WIRE 112 496 16 496
WIRE 304 496 304 416
WIRE 304 496 192 496
WIRE 1056 496 1056 192
WIRE 1056 496 304 496
FLAG 976 256 v+
FLAG 976 224 v-
FLAG -240 240 0
FLAG -96 272 v+
FLAG -96 240 v-
FLAG -512 496 0
FLAG -368 496 0
FLAG -512 320 v+
FLAG -368 320 v-
FLAG 624 352 0
SYMBOL res 0 320 R0
SYMATTR InstName RF
SYMATTR Value 18k
SYMBOL res 208 192 R90
WINDOW 0 0 56 VBottom 2
WINDOW 3 32 56 VTop 2
SYMATTR InstName R2
SYMATTR Value 900k
SYMBOL res 208 480 R90
WINDOW 0 0 56 VBottom 2
WINDOW 3 32 56 VTop 2
SYMATTR InstName R1
SYMATTR Value 10k
SYMBOL cap 288 352 R0
SYMATTR InstName C1
SYMATTR Value 1n
SYMBOL AutoGenerated/TL074 944 224 M180
SYMATTR InstName U1
SYMBOL AutoGenerated/TL074 -128 240 M180
SYMATTR InstName U2
SYMBOL voltage -512 320 R0
WINDOW 123 0 0 Left 2
WINDOW 39 0 0 Left 2
SYMATTR InstName V1
SYMATTR Value 15
SYMBOL voltage -368 320 R0
WINDOW 123 0 0 Left 2
WINDOW 39 0 0 Left 2
SYMATTR InstName V2
SYMATTR Value -15
TEXT -488 112 Left 2 !.tran 0 30m 10m
