Version 4
SHEET 1 1716 680
WIRE 80 -512 -592 -512
WIRE 800 -512 160 -512
WIRE 368 -384 336 -384
WIRE 576 -384 448 -384
WIRE 624 -384 576 -384
WIRE 800 -384 800 -512
WIRE 800 -384 688 -384
WIRE 1008 -384 800 -384
WIRE 1344 -384 1008 -384
WIRE 576 -368 576 -384
WIRE -592 -336 -592 -512
WIRE 32 -336 -592 -336
WIRE 336 -336 336 -384
WIRE 336 -336 256 -336
WIRE 1008 -320 1008 -384
WIRE 1344 -320 1344 -384
WIRE 32 -240 -832 -240
WIRE 512 -240 256 -240
WIRE 576 -240 576 -288
WIRE 576 -240 512 -240
WIRE 784 -240 656 -240
WIRE 960 -240 864 -240
WIRE 1008 -208 1008 -224
WIRE 1008 -208 992 -208
WIRE 656 -176 656 -240
WIRE 656 -176 464 -176
WIRE -592 -144 -592 -336
WIRE 32 -144 -432 -144
WIRE 464 -144 464 -176
WIRE 464 -144 256 -144
WIRE 512 -144 512 -240
WIRE 576 -144 576 -240
WIRE 656 -144 576 -144
WIRE 1344 -144 1344 -240
WIRE 656 -112 656 -144
WIRE -432 -96 -432 -144
WIRE 992 -80 992 -208
WIRE 1200 -80 992 -80
WIRE 1536 -80 1280 -80
WIRE 1696 -80 1536 -80
WIRE -832 -64 -832 -240
WIRE 32 -48 -288 -48
WIRE 512 -48 512 -80
WIRE 512 -48 256 -48
WIRE 656 -48 576 -48
WIRE 672 -48 656 -48
WIRE 992 -32 992 -80
WIRE 1696 -32 1696 -80
WIRE -592 -16 -592 -80
WIRE -432 -16 -432 -32
WIRE -432 -16 -592 -16
WIRE -288 -16 -288 -48
WIRE -288 -16 -432 -16
WIRE 1536 -16 1536 -80
WIRE -832 32 -832 16
WIRE -592 32 -592 -16
WIRE -592 32 -832 32
WIRE -192 48 -320 48
WIRE 32 48 -112 48
WIRE 576 48 576 -48
WIRE 576 48 256 48
WIRE 816 48 704 48
WIRE 944 48 896 48
WIRE -832 64 -832 32
WIRE 576 64 576 48
WIRE 1536 128 1536 48
WIRE 1696 128 1696 48
WIRE -320 144 -320 48
WIRE 32 144 -320 144
WIRE 704 144 704 48
WIRE 704 144 256 144
WIRE -320 224 -320 144
WIRE 672 224 672 -48
WIRE 784 224 672 224
WIRE 1120 224 784 224
WIRE 32 240 -192 240
WIRE 576 240 576 128
WIRE 576 240 256 240
WIRE 784 256 784 224
WIRE 1120 320 1120 224
WIRE -192 368 -192 240
WIRE 784 368 784 336
WIRE 784 368 -192 368
WIRE 784 400 784 368
WIRE -320 512 -320 304
WIRE 576 512 576 240
WIRE 576 512 -320 512
WIRE 784 512 784 480
WIRE 784 512 576 512
WIRE 992 512 992 64
WIRE 992 512 784 512
WIRE 1120 512 1120 400
WIRE 1120 512 992 512
WIRE 1120 576 1120 512
FLAG -832 64 0
FLAG 1344 -144 0
FLAG 1120 576 0
FLAG 1344 -384 B+
FLAG 1120 512 B-
FLAG 1536 128 0
FLAG 1696 128 0
SYMBOL cap -608 -144 R0
SYMATTR InstName C1
SYMATTR Value 10µ
SYMBOL cap -448 -96 R0
SYMATTR InstName C2
SYMATTR Value 10µ
SYMBOL cap 560 64 R0
SYMATTR InstName C3
SYMATTR Value 1n
SYMBOL cap 496 -144 R0
SYMATTR InstName C4
SYMATTR Value 1n
SYMBOL res 176 -528 R90
WINDOW 0 0 56 VBottom 2
WINDOW 3 32 56 VTop 2
SYMATTR InstName R1
SYMATTR Value 10k
SYMBOL res 464 -400 R90
WINDOW 0 0 56 VBottom 2
WINDOW 3 32 56 VTop 2
SYMATTR InstName R2
SYMATTR Value 6.8k
SYMBOL res 592 -272 R180
WINDOW 0 36 76 Left 2
WINDOW 3 36 40 Left 2
SYMATTR InstName R3
SYMATTR Value 3.3k
SYMBOL diode 624 -368 R270
WINDOW 0 32 32 VTop 2
WINDOW 3 0 32 VBottom 2
SYMATTR InstName D1
SYMATTR Value MURS120
SYMBOL res 768 384 R0
SYMATTR InstName R6
SYMATTR Value 5.6k
SYMBOL res 768 240 R0
SYMATTR InstName R7
SYMATTR Value 4.7k
SYMBOL nmos 944 -32 R0
SYMATTR InstName M1
SYMBOL nmos 960 -320 R0
SYMATTR InstName M2
SYMBOL res 912 32 R90
WINDOW 0 0 56 VBottom 2
WINDOW 3 32 56 VTop 2
SYMATTR InstName R8
SYMATTR Value 10
SYMBOL res 880 -256 R90
WINDOW 0 0 56 VBottom 2
WINDOW 3 32 56 VTop 2
SYMATTR InstName R9
SYMATTR Value 10
SYMBOL diode 672 -48 R180
WINDOW 0 24 64 Left 2
WINDOW 3 24 0 Left 2
SYMATTR InstName D4
SYMATTR Value MURS120
SYMBOL IRS20954 144 -48 R0
SYMATTR InstName X2
SYMBOL voltage 1120 304 R0
SYMATTR InstName V2
SYMATTR Value 15
SYMBOL voltage -832 -80 R0
WINDOW 0 -41 38 Bottom 2
WINDOW 3 112 -31 Right 2
WINDOW 123 0 0 Left 2
WINDOW 39 0 0 Left 2
SYMATTR InstName V3
SYMATTR Value PULSE(0 3.7 1u 1n 1n 1u 4u)
SYMBOL voltage 1344 -336 R0
SYMATTR InstName V1
SYMATTR Value 60
SYMBOL ind 1296 -96 R90
WINDOW 0 5 56 VBottom 2
WINDOW 3 32 56 VTop 2
SYMATTR InstName L1
SYMATTR Value 30µ
SYMBOL cap 1520 -16 R0
SYMATTR InstName C5
SYMATTR Value 0.68µ
SYMBOL res 1712 64 R180
WINDOW 0 36 76 Left 2
WINDOW 3 36 40 Left 2
SYMATTR InstName R4
SYMATTR Value 10k
SYMBOL res -96 32 R90
WINDOW 0 0 56 VBottom 2
WINDOW 3 32 56 VTop 2
SYMATTR InstName R5
SYMATTR Value 6.2k
SYMBOL res -304 320 R180
WINDOW 0 36 76 Left 2
WINDOW 3 36 40 Left 2
SYMATTR InstName R10
SYMATTR Value 3k
TEXT -1416 -1784 Left 2 ;Vb Zos: 220V\nVddZos: 210V\nVccZ: 20.2V\nVb Z: 20.2V\nVddZ: 10.4V\nTd on: 90ns+Tdt\nTd off: 90ns\nTsd:  < 1us\nTr on: 15ns\nTf off: 10ns\nTdt: 15/25/35/45ns\nVdt: .89/.57/.36/.23\nVHin: 2.3\nVLin: 1.5\nVHsat: 1.2\nRos: 5e6\nRb: 12k\nRcc: 7k\nRdd: 22k\nRin: 1e6\nUVL Vcc: 8.9/8.7V\nUVL Vb:  8.5/8.3V\nUVL Vdd: 8.7/8.2V\nIo+: 1.0A\nIo-: 1.2A\nVoc: 70/30 %Vdd\nIoc: +/-100ua\nOCH: 1.2Vos\n 300ns filter\nOCL: 0.0Vos\n 200ns filter
TEXT -1072 -552 Left 2 !.tran 20u
