Version 4
SHEET 1 1308 680
WIRE 800 -160 176 -160
WIRE 80 -48 64 -48
WIRE 176 -48 176 -160
WIRE 176 -48 160 -48
WIRE 224 -48 176 -48
WIRE 256 -48 224 -48
WIRE 512 -48 480 -48
WIRE 544 -48 512 -48
WIRE 80 48 64 48
WIRE 224 48 160 48
WIRE 256 48 224 48
WIRE 512 48 480 48
WIRE 544 48 512 48
WIRE 800 64 800 -160
WIRE 96 144 64 144
WIRE 224 144 160 144
WIRE 256 144 224 144
WIRE 512 144 480 144
WIRE 544 144 512 144
WIRE 640 144 544 144
WIRE 752 144 720 144
WIRE 544 160 544 144
WIRE 256 240 240 240
WIRE 544 240 544 224
WIRE 544 240 480 240
WIRE 544 256 544 240
WIRE 224 336 176 336
WIRE 256 336 224 336
WIRE 512 336 480 336
WIRE 544 336 512 336
WIRE 800 352 800 160
WIRE 80 432 64 432
WIRE 224 432 160 432
WIRE 256 432 224 432
WIRE 512 432 480 432
WIRE 544 432 512 432
WIRE 624 432 544 432
WIRE 752 432 704 432
WIRE 544 448 544 432
WIRE 80 528 64 528
WIRE 224 528 160 528
WIRE 256 528 224 528
WIRE 544 528 544 512
WIRE 544 528 480 528
WIRE 800 528 800 448
WIRE 800 528 544 528
WIRE 544 544 544 528
FLAG 64 432 0
FLAG 224 528 DT
FLAG 544 256 0
FLAG 512 144 Ho
FLAG 544 544 0
FLAG 512 432 Lo
FLAG 64 48 0
FLAG 224 48 In
FLAG 512 48 15V
FLAG 512 336 15V
FLAG 64 -48 0
FLAG 224 -48 15V
FLAG 512 -48 CsH
FLAG 224 144 CSD
FLAG 224 336 Vref
FLAG 64 528 0
FLAG 224 432 OCset
FLAG 64 144 0
FLAG 240 240 0
FLAG 544 -48 0
SYMBOL voltage 176 48 R90
WINDOW 0 -16 16 VBottom 2
WINDOW 3 48 -16 VRight 2
WINDOW 123 0 0 Left 2
WINDOW 39 0 0 Left 2
SYMATTR InstName V1
SYMATTR Value PULSE(0 3.7 1u 1n 1n 1u 4u)
SYMBOL voltage 176 -48 R90
WINDOW 0 -32 56 VBottom 2
WINDOW 3 32 56 VTop 2
SYMATTR InstName V2
SYMATTR Value 15
SYMBOL IRS20954 368 240 R0
SYMATTR InstName X1
SYMBOL cap 160 128 R90
WINDOW 0 0 32 VBottom 2
WINDOW 3 32 32 VTop 2
SYMATTR InstName C1
SYMATTR Value 10p
SYMBOL voltage 176 432 R90
WINDOW 0 -32 56 VBottom 2
WINDOW 3 32 56 VTop 2
SYMATTR InstName V3
SYMATTR Value 1.2
SYMBOL voltage 176 528 R90
WINDOW 0 -16 16 VBottom 2
WINDOW 3 32 56 VTop 2
SYMATTR InstName V4
SYMATTR Value 15
SYMBOL cap 528 160 R0
SYMATTR InstName C2
SYMATTR Value 1n
SYMBOL cap 528 448 R0
SYMATTR InstName C3
SYMATTR Value 1n
SYMBOL nmos 752 352 R0
SYMATTR InstName M1
SYMBOL res 720 416 R90
WINDOW 0 0 56 VBottom 2
WINDOW 3 32 56 VTop 2
SYMATTR InstName R1
SYMATTR Value 22
SYMBOL nmos 752 64 R0
SYMATTR InstName M2
SYMBOL res 736 128 R90
WINDOW 0 0 56 VBottom 2
WINDOW 3 32 56 VTop 2
SYMATTR InstName R3
SYMATTR Value 22
TEXT -912 -120 Left 2 ;Vb Zos: 220V\nVddZos: 210V\nVccZ: 20.2V\nVb Z: 20.2V\nVddZ: 10.4V\nTd on: 90ns+Tdt\nTd off: 90ns\nTsd:  < 1us\nTr on: 15ns\nTf off: 10ns\nTdt: 15/25/35/45ns\nVdt: .89/.57/.36/.23\nVHin: 2.3\nVLin: 1.5\nVHsat: 1.2\nRos: 5e6\nRb: 12k\nRcc: 7k\nRdd: 22k\nRin: 1e6\nUVL Vcc: 8.9/8.7V\nUVL Vb:  8.5/8.3V\nUVL Vdd: 8.7/8.2V\nIo+: 1.0A\nIo-: 1.2A\nVoc: 70/30 %Vdd\nIoc: +/-100ua\nOCH: 1.2Vos\n 300ns filter\nOCL: 0.0Vos\n 200ns filter
TEXT -48 608 Left 2 !.tran 0 30u 0 10n uic
TEXT -48 632 Left 2 !.options plotwinsize=0