Version 4
SHEET 1 980 680
WIRE -80 -160 -128 -160
WIRE 240 -160 144 -160
WIRE 256 -160 240 -160
WIRE 432 -160 336 -160
WIRE 640 -160 432 -160
WIRE 864 -160 704 -160
WIRE 432 -144 432 -160
WIRE -80 -64 -128 -64
WIRE 336 -64 144 -64
WIRE 432 -64 336 -64
WIRE 864 -48 864 -160
WIRE 432 -32 432 -64
WIRE 240 -16 240 -160
WIRE -80 32 -208 32
WIRE 640 32 144 32
WIRE 816 32 720 32
WIRE -208 48 -208 32
WIRE 336 48 336 -64
WIRE 432 80 432 48
WIRE -208 128 -208 112
WIRE -80 128 -208 128
WIRE 240 128 240 64
WIRE 240 128 144 128
WIRE 336 128 336 112
WIRE 336 128 240 128
WIRE 864 128 864 48
WIRE 864 128 336 128
WIRE 976 128 864 128
WIRE -208 144 -208 128
WIRE -80 224 -208 224
WIRE 240 224 144 224
WIRE 336 224 240 224
WIRE 432 224 432 144
WIRE 432 224 336 224
WIRE 464 224 432 224
WIRE 864 240 864 128
WIRE 864 256 864 240
WIRE -208 320 -208 304
WIRE -80 320 -208 320
WIRE 640 320 144 320
WIRE 816 320 720 320
WIRE 336 336 336 224
WIRE -208 384 -208 320
WIRE -80 416 -128 416
WIRE 336 416 336 400
WIRE 336 416 144 416
WIRE 240 432 240 224
WIRE -128 528 -128 416
WIRE 240 528 240 512
WIRE 240 528 -128 528
WIRE 240 544 240 528
WIRE -208 640 -208 464
WIRE -208 640 -240 640
WIRE 240 640 240 624
WIRE 240 640 -208 640
WIRE 336 640 336 416
WIRE 336 640 240 640
WIRE 864 640 864 336
WIRE 864 640 336 640
FLAG -240 640 0
FLAG 864 -160 VDD_60
FLAG -128 -160 VDD
FLAG -208 144 0
FLAG 864 128 Vo1
FLAG -128 -64 Vin
FLAG 464 224 VDD
SYMBOL IRS20954 32 128 R0
SYMATTR InstName X1
SYMBOL cap 320 48 R0
SYMATTR InstName C1
SYMATTR Value 22n
SYMBOL cap -224 48 R0
SYMATTR InstName Ct1
SYMATTR Value 10p
SYMBOL cap 320 336 R0
SYMATTR InstName C2
SYMATTR Value 22n
SYMBOL nmos 816 -48 R0
SYMATTR InstName M1
SYMATTR Value irf630
SYMATTR Prefix X
SYMBOL nmos 816 240 R0
SYMATTR InstName M2
SYMATTR Value irf630
SYMATTR Prefix X
SYMBOL zener 448 144 R180
WINDOW 0 24 64 Left 2
WINDOW 3 -91 67 Left 2
SYMATTR InstName D1
SYMATTR Value MUR460
SYMBOL res 416 -48 R0
WINDOW 0 37 25 Left 2
WINDOW 3 36 62 Left 2
SYMATTR InstName RD1
SYMATTR Value 10
SYMBOL res 736 16 R90
WINDOW 0 0 56 VBottom 2
WINDOW 3 32 56 VTop 2
SYMATTR InstName RG1
SYMATTR Value 2.2
SYMBOL res 736 304 R90
WINDOW 0 0 56 VBottom 2
WINDOW 3 32 56 VTop 2
SYMATTR InstName RG2
SYMATTR Value 2.2
SYMBOL res 224 -32 R0
SYMATTR InstName R1
SYMATTR Value 4.6k
SYMBOL res 352 -176 R90
WINDOW 0 0 56 VBottom 2
WINDOW 3 32 56 VTop 2
SYMATTR InstName R2
SYMATTR Value 5.4k
SYMBOL res 448 -48 R180
WINDOW 0 36 76 Left 2
WINDOW 3 36 40 Left 2
SYMATTR InstName R3
SYMATTR Value 10k
SYMBOL diode 640 -144 R270
WINDOW 0 32 32 VTop 2
WINDOW 3 0 32 VBottom 2
SYMATTR InstName D2
SYMATTR Value MUR460
SYMBOL res -224 368 R0
SYMATTR InstName R4
SYMATTR Value 4k
SYMBOL res -224 208 R0
SYMATTR InstName R5
SYMATTR Value 6k
SYMBOL res 224 416 R0
SYMATTR InstName R6
SYMATTR Value 8.2k
SYMBOL res 224 528 R0
SYMATTR InstName R7
SYMATTR Value 3.3k
