Version 4
SHEET 1 880 680
WIRE 128 32 16 32
WIRE 352 32 208 32
WIRE -128 112 -208 112
WIRE 16 112 16 32
WIRE 16 112 -48 112
WIRE 128 176 64 176
WIRE 16 192 16 112
WIRE 112 192 16 192
WIRE 352 192 352 32
WIRE 352 192 192 192
WIRE -80 208 -160 208
WIRE 64 208 64 176
WIRE 64 208 0 208
WIRE 112 208 112 192
WIRE 128 208 112 208
WIRE -160 240 -160 208
WIRE 64 304 64 208
WIRE 160 304 64 304
WIRE 352 304 352 192
WIRE 352 304 240 304
WIRE 64 384 64 304
WIRE -160 432 -160 320
WIRE 64 496 64 448
FLAG -160 432 0
FLAG 272 528 0
FLAG 416 528 0
FLAG 272 448 Vcc+
FLAG 416 448 Vcc-
FLAG 160 224 Vcc+
FLAG -208 112 0
FLAG 64 496 0
FLAG 352 192 Vo
FLAG -160 208 Vi
FLAG 64 304 Vc
FLAG 160 160 Vcc-
SYMBOL voltage -160 224 R0
WINDOW 3 -113 133 Left 2
SYMATTR Value PULSE(0 1 10u 1p 1p 100u 110u 1)
SYMATTR InstName V1
SYMBOL res 16 192 R90
WINDOW 0 0 56 VBottom 2
WINDOW 3 32 56 VTop 2
SYMATTR InstName R1
SYMATTR Value 100k
SYMBOL voltage 272 432 R0
SYMATTR InstName V2
SYMATTR Value 5
SYMBOL voltage 416 432 R0
SYMATTR InstName V3
SYMATTR Value -5
SYMBOL res -32 96 R90
WINDOW 0 0 56 VBottom 2
WINDOW 3 32 56 VTop 2
SYMATTR InstName R2
SYMATTR Value 100k
SYMBOL res 256 288 R90
WINDOW 0 0 56 VBottom 2
WINDOW 3 32 56 VTop 2
SYMATTR InstName R3
SYMATTR Value 100k
SYMBOL cap 48 384 R0
SYMATTR InstName C1
SYMATTR Value 0.5n
SYMBOL res 224 16 R90
WINDOW 0 0 56 VBottom 2
WINDOW 3 32 56 VTop 2
SYMATTR InstName R4
SYMATTR Value 100k
SYMBOL UniversalOpamp2 160 192 M180
SYMATTR InstName U1
TEXT -240 544 Left 2 !.tran 900u uic
TEXT -232 512 Left 2 !.ic V(vc)=0
