Version 4
SHEET 1 992 680
WIRE 800 -528 48 -528
WIRE 800 -480 800 -528
WIRE 848 -480 800 -480
WIRE 848 -448 816 -448
WIRE 960 -432 912 -432
WIRE 528 -416 496 -416
WIRE 576 -416 528 -416
WIRE 432 -352 432 -368
WIRE 528 -352 528 -416
WIRE 528 -352 432 -352
WIRE 640 -336 640 -368
WIRE 800 -336 800 -480
WIRE 800 -336 640 -336
WIRE 816 -336 816 -448
WIRE 960 -336 960 -432
WIRE 960 -336 816 -336
WIRE 800 -320 800 -336
WIRE 176 -304 176 -320
WIRE 288 -304 176 -304
WIRE 704 -304 336 -304
WIRE 176 -288 176 -304
WIRE 432 -288 432 -352
WIRE 640 -288 640 -336
WIRE -592 -256 -592 -368
WIRE -288 -256 -288 -368
WIRE 288 -240 288 -304
WIRE 288 -240 240 -240
WIRE 336 -240 336 -304
WIRE 336 -240 288 -240
WIRE 368 -240 336 -240
WIRE 704 -240 704 -304
WIRE -464 -208 -528 -208
WIRE -352 -208 -464 -208
WIRE 176 -144 176 -192
WIRE 432 -128 432 -192
WIRE 896 -128 896 -144
WIRE 896 -128 784 -128
WIRE 640 -112 640 -192
WIRE 896 -112 896 -128
WIRE -592 -80 -592 -160
WIRE -464 -80 -464 -208
WIRE -464 -80 -592 -80
WIRE 784 -64 784 -128
WIRE 832 -64 784 -64
WIRE -288 0 -288 -160
WIRE -96 0 -288 0
WIRE 432 0 432 -48
WIRE 528 0 432 0
WIRE 640 0 640 -32
WIRE 736 0 640 0
WIRE 80 16 -32 16
WIRE -96 32 -176 32
WIRE 896 32 896 -16
WIRE -288 48 -288 0
WIRE 368 48 320 48
WIRE 80 80 80 16
WIRE 144 80 80 80
WIRE 352 80 240 80
WIRE 368 80 368 48
WIRE 384 80 368 80
WIRE -176 96 -176 32
WIRE 48 96 48 -528
WIRE 48 96 -176 96
WIRE 144 128 80 128
WIRE 320 128 320 48
WIRE 320 128 256 128
WIRE 352 128 352 80
WIRE 592 128 592 80
WIRE 592 128 352 128
WIRE -288 144 -288 128
WIRE -288 144 -432 144
WIRE -432 176 -432 144
WIRE -288 192 -288 144
WIRE 432 192 432 96
WIRE 528 192 528 80
WIRE 640 192 640 96
WIRE 736 192 736 80
WIRE -176 224 -176 96
WIRE -80 224 -176 224
WIRE 80 240 80 128
WIRE 80 240 -16 240
WIRE -80 256 -192 256
WIRE -288 320 -288 272
WIRE -192 320 -192 256
WIRE -192 320 -288 320
WIRE -592 352 -592 -80
WIRE -288 352 -288 320
WIRE -48 352 -176 352
WIRE 0 352 -48 352
WIRE 160 352 80 352
WIRE 160 384 160 352
WIRE -224 400 -528 400
WIRE -176 400 -176 352
WIRE -176 400 -224 400
WIRE -112 400 -176 400
FLAG -432 256 0
FLAG 160 464 0
FLAG -48 448 0
FLAG -288 448 0
FLAG -592 448 0
FLAG -960 32 Vcc
FLAG -800 32 Vss
FLAG -800 112 0
FLAG -960 112 0
FLAG -64 -16 Vcc
FLAG -48 208 Vcc
FLAG 176 -64 0
FLAG 176 -400 Vcc40
FLAG -1088 32 Vcc40
FLAG -1088 112 0
FLAG 800 -256 0
FLAG -592 -368 Vcc24
FLAG -288 -368 Vcc24
FLAG 432 -464 Vcc
FLAG 640 -464 Vcc
FLAG 912 -496 Vcc
FLAG 912 -464 Vss
FLAG 960 -336 Vo
FLAG -1216 32 Vcc24
FLAG -1216 112 0
FLAG -1344 32 Vcc6
FLAG -1344 112 0
FLAG 736 192 Vcc6
FLAG 528 192 Vcc6
FLAG 896 112 0
FLAG 896 -224 Vcc40
FLAG -64 48 0
FLAG -48 272 0
FLAG 432 272 0
FLAG 640 272 0
FLAG 144 160 0
SYMBOL pnp -352 -160 M180
SYMATTR InstName Q1
SYMATTR Value 2N3906
SYMBOL pnp -528 -160 R180
SYMATTR InstName Q2
SYMATTR Value 2N3906
SYMBOL npn -528 352 M0
SYMATTR InstName Q3
SYMATTR Value 2N3904
SYMBOL res -304 32 R0
SYMATTR InstName R1
SYMATTR Value 500
SYMBOL res -304 176 R0
SYMATTR InstName R2
SYMATTR Value 500
SYMBOL voltage -432 160 R0
WINDOW 123 0 0 Left 0
WINDOW 39 0 0 Left 0
SYMATTR InstName V2
SYMATTR Value 12
SYMBOL npn -224 352 M0
SYMATTR InstName Q4
SYMATTR Value 2N3904
SYMBOL npn -112 352 R0
SYMATTR InstName Q5
SYMATTR Value 2N3904
SYMBOL res 96 336 R90
WINDOW 0 0 56 VBottom 2
WINDOW 3 32 56 VTop 2
SYMATTR InstName R3
SYMATTR Value 10k
SYMBOL voltage 160 368 R0
WINDOW 123 0 0 Left 0
WINDOW 39 0 0 Left 0
SYMATTR InstName V3
SYMATTR Value 40
SYMBOL Digital\\srflop 192 32 R0
SYMATTR InstName A1
SYMATTR Value2 vhigh=5
SYMBOL voltage -960 16 R0
WINDOW 123 0 0 Left 0
WINDOW 39 0 0 Left 0
SYMATTR InstName V4
SYMATTR Value 17
SYMBOL voltage -800 16 R0
WINDOW 123 0 0 Left 0
WINDOW 39 0 0 Left 0
SYMATTR InstName V5
SYMATTR Value -15
SYMBOL res 512 -16 R0
SYMATTR InstName R4
SYMATTR Value 1Meg
SYMBOL res 720 -16 R0
SYMATTR InstName R5
SYMATTR Value 1Meg
SYMBOL res 416 -144 R0
SYMATTR InstName R6
SYMATTR Value 100
SYMBOL res 624 -128 R0
SYMATTR InstName R7
SYMATTR Value 100
SYMBOL npn 704 -288 M0
SYMATTR InstName Q7
SYMATTR Value 2N3904
SYMBOL npn 368 -288 R0
SYMATTR InstName Q6
SYMATTR Value 2N3904
SYMBOL npn 240 -288 M0
SYMATTR InstName Q8
SYMATTR Value 2N3904
SYMBOL res 160 -160 R0
SYMATTR InstName R8
SYMATTR Value 200
SYMBOL res 160 -416 R0
SYMATTR InstName R9
SYMATTR Value 38.62k
SYMBOL voltage -1088 16 R0
WINDOW 123 0 0 Left 0
WINDOW 39 0 0 Left 0
SYMATTR InstName V6
SYMATTR Value 20
SYMBOL cap 784 -320 R0
SYMATTR InstName C1
SYMATTR Value 100n
SYMBOL pnp 496 -368 R180
SYMATTR InstName Q9
SYMATTR Value 2N3906
SYMBOL pnp 576 -368 M180
SYMATTR InstName Q10
SYMATTR Value 2N3906
SYMBOL AutoGenerated\\TL074 880 -464 R0
SYMATTR InstName U3
SYMBOL voltage -1216 16 R0
WINDOW 123 0 0 Left 0
WINDOW 39 0 0 Left 0
SYMATTR InstName V1
SYMATTR Value 24
SYMBOL voltage -1344 16 R0
WINDOW 123 0 0 Left 0
WINDOW 39 0 0 Left 0
SYMATTR InstName V7
SYMATTR Value 6
SYMBOL nmos 384 0 R0
SYMATTR InstName M1
SYMATTR Value AP9465GEM
SYMBOL Comparators\\LT1017 -64 16 R0
SYMATTR InstName U4
SYMBOL Comparators\\LT1017 -48 240 R0
SYMATTR InstName U5
SYMBOL npn 832 -112 R0
SYMATTR InstName Q11
SYMATTR Value 2N3904
SYMBOL res 912 16 M0
SYMATTR InstName R10
SYMATTR Value 100
SYMBOL res 912 -240 M0
SYMATTR InstName R11
SYMATTR Value 50k
SYMBOL res 416 176 R0
SYMATTR InstName R13
SYMATTR Value 100
SYMBOL res 624 176 R0
SYMATTR InstName R14
SYMATTR Value 100
SYMBOL nmos 592 0 R0
SYMATTR InstName M2
SYMATTR Value AP9465GEM
TEXT -1120 488 Left 2 !.tran 20m
