Version 4
SHEET 1 4360 2064
WIRE 720 -176 480 -176
WIRE 848 -176 848 -240
WIRE 848 -176 720 -176
WIRE 1040 -176 848 -176
WIRE 720 -144 720 -176
WIRE 1040 -144 1040 -176
WIRE 2976 -112 2912 -112
WIRE 3152 -96 3152 -160
WIRE 3152 -96 3040 -96
WIRE 2208 -80 2080 -80
WIRE 2368 -80 2288 -80
WIRE 2976 -80 2944 -80
WIRE 3200 -64 3200 -80
WIRE 3360 -64 3200 -64
WIRE 3472 -64 3360 -64
WIRE 3536 -64 3472 -64
WIRE 3760 -64 3616 -64
WIRE 480 -48 480 -176
WIRE -400 -32 -400 -80
WIRE -400 -32 -512 -32
WIRE -288 -32 -400 -32
WIRE 720 -32 720 -64
WIRE 1040 -32 1040 -64
WIRE 3200 -32 3200 -64
WIRE 1552 0 1552 -160
WIRE 1664 0 1552 0
WIRE 3472 0 3472 -64
WIRE 816 16 784 16
WIRE 976 16 816 16
WIRE 1792 16 1728 16
WIRE 1840 16 1792 16
WIRE 2000 16 1920 16
WIRE 2080 16 2080 -80
WIRE 2080 16 2000 16
WIRE 2128 16 2080 16
WIRE 3360 16 3360 -64
WIRE -512 32 -512 -32
WIRE -288 32 -288 -32
WIRE 1664 32 1616 32
WIRE 2000 32 2000 16
WIRE 2368 32 2368 -80
WIRE 2368 32 2192 32
WIRE 2432 32 2368 32
WIRE 2576 32 2512 32
WIRE 64 48 64 16
WIRE 64 48 16 48
WIRE 112 48 64 48
WIRE 1552 48 1552 0
WIRE 2128 48 2080 48
WIRE -416 80 -448 80
WIRE -352 80 -416 80
WIRE 16 80 16 48
WIRE 112 80 112 48
WIRE 480 80 480 32
WIRE 576 80 480 80
WIRE 2944 80 2944 -80
WIRE 3200 80 3200 48
WIRE 3200 80 2944 80
WIRE 720 96 720 64
WIRE 816 96 816 16
WIRE 816 96 720 96
WIRE 1040 96 1040 64
WIRE 1152 96 1152 -240
WIRE 1152 96 1040 96
WIRE 1184 96 1152 96
WIRE 1616 96 1616 32
WIRE 1792 96 1792 16
WIRE 1792 96 1616 96
WIRE 480 112 480 80
WIRE 1184 112 1184 96
WIRE 3200 112 3200 80
WIRE 2000 128 2000 112
WIRE 2080 128 2080 48
WIRE 1552 144 1552 112
WIRE -512 160 -512 128
WIRE -416 160 -416 80
WIRE -416 160 -512 160
WIRE 576 160 576 80
WIRE 576 160 544 160
WIRE 816 160 576 160
WIRE 720 208 720 96
WIRE 1040 208 1040 96
WIRE 1184 208 1184 176
WIRE -288 224 -288 128
WIRE -96 224 -288 224
WIRE 480 224 480 208
WIRE 3200 224 3200 192
WIRE 3360 224 3360 80
WIRE 3472 224 3472 80
WIRE 16 240 16 160
WIRE 16 240 -32 240
WIRE 240 240 16 240
WIRE -96 256 -176 256
WIRE 816 256 816 160
WIRE 816 256 784 256
WIRE 976 256 816 256
WIRE -288 272 -288 224
WIRE 480 320 480 304
WIRE -176 352 -176 256
WIRE 240 352 -176 352
WIRE 720 352 720 304
WIRE 1040 352 1040 304
WIRE -288 384 -288 352
WIRE -288 384 -336 384
WIRE 2208 384 2080 384
WIRE 2368 384 2288 384
WIRE -288 416 -288 384
WIRE -176 448 -176 352
WIRE -80 448 -176 448
WIRE 2992 448 2912 448
WIRE 3168 448 3072 448
WIRE 112 464 112 160
WIRE 112 464 -16 464
WIRE 240 464 112 464
WIRE 1552 464 1552 304
WIRE 1664 464 1552 464
WIRE 3376 464 3328 464
WIRE 3520 464 3456 464
WIRE -80 480 -192 480
WIRE 1792 480 1728 480
WIRE 1840 480 1792 480
WIRE 2000 480 1920 480
WIRE 2080 480 2080 384
WIRE 2080 480 2000 480
WIRE 2128 480 2080 480
WIRE 720 496 720 432
WIRE 768 496 720 496
WIRE 880 496 848 496
WIRE 912 496 880 496
WIRE 1040 496 1040 432
WIRE 1040 496 992 496
WIRE 1664 496 1616 496
WIRE 2000 496 2000 480
WIRE 2368 496 2368 384
WIRE 2368 496 2192 496
WIRE 2432 496 2368 496
WIRE 2576 496 2512 496
WIRE 2128 512 2080 512
WIRE -288 544 -288 496
WIRE -192 544 -192 480
WIRE -192 544 -288 544
WIRE -16 560 -128 560
WIRE 880 560 880 496
WIRE 1616 560 1616 496
WIRE 1792 560 1792 480
WIRE 1792 560 1616 560
WIRE 2864 560 2784 560
WIRE 2912 560 2912 448
WIRE 2912 560 2864 560
WIRE 2992 560 2912 560
WIRE 672 576 336 576
WIRE 1328 576 1088 576
WIRE 3168 576 3168 448
WIRE 3168 576 3056 576
WIRE 3200 576 3168 576
WIRE 3328 576 3328 464
WIRE 3328 576 3280 576
WIRE 3376 576 3328 576
WIRE 2000 592 2000 576
WIRE 2080 592 2080 512
WIRE 2992 592 2960 592
WIRE 3520 592 3520 464
WIRE 3520 592 3440 592
WIRE 3648 592 3520 592
WIRE -512 608 -512 160
WIRE -288 608 -288 544
WIRE -16 608 -16 560
WIRE -16 608 -48 608
WIRE 0 608 -16 608
WIRE 128 608 80 608
WIRE 3376 608 3344 608
WIRE 2864 624 2864 560
WIRE 2864 624 2784 624
WIRE 2960 640 2960 592
WIRE -224 656 -448 656
WIRE -128 656 -128 560
WIRE -128 656 -224 656
WIRE -112 656 -128 656
WIRE 3344 656 3344 608
WIRE -512 720 -512 704
WIRE -288 720 -288 704
WIRE -48 720 -48 704
WIRE 720 768 720 592
WIRE 1040 768 1040 592
WIRE -32 992 -384 992
WIRE -144 1056 -208 1056
WIRE -32 1056 -32 992
WIRE 128 1056 -32 1056
WIRE -384 1072 -384 992
WIRE -320 1072 -384 1072
WIRE -320 1104 -576 1104
WIRE -144 1184 -144 1056
WIRE -144 1184 -368 1184
WIRE 144 1184 -144 1184
WIRE -32 1280 -32 1056
WIRE -32 1280 -208 1280
WIRE -368 1296 -368 1184
WIRE -320 1296 -368 1296
WIRE -320 1328 -576 1328
FLAG -48 720 0
FLAG -288 720 0
FLAG -512 720 0
FLAG 480 320 0
FLAG 1184 208 0
FLAG 848 -240 Vcc
FLAG 880 560 Vcc5
FLAG 1040 768 0
FLAG 720 768 0
FLAG -400 -80 Vcc
FLAG 128 608 Vcc
FLAG 240 240 VS
FLAG 240 464 VR
FLAG -336 384 Vref
FLAG 240 352 Vc
FLAG 1328 576 VQ
FLAG 336 576 not_VQ
FLAG 1152 -240 Vc
FLAG -768 -16 0
FLAG -768 80 Vcc
FLAG 32 -800 Vss
FLAG 32 -720 0
FLAG -768 160 0
FLAG -256 -816 Vcc5
FLAG -256 -736 0
FLAG -160 -736 0
FLAG -160 -816 Vcc-5
FLAG -512 -816 Vin
FLAG -512 -736 0
FLAG -768 -96 Vref
FLAG -64 208 Vcc
FLAG -64 272 0
FLAG -48 432 Vcc
FLAG -48 496 0
FLAG 64 16 Vcc
FLAG -288 224 A
FLAG -288 544 B
FLAG 1696 48 Vcc
FLAG 1696 -16 Vss
FLAG 1552 144 0
FLAG 2000 128 Vcc-5
FLAG 2080 128 0
FLAG 1552 -160 VQ
FLAG 2576 32 Vo_cuadrada
FLAG 3200 -176 Vin
FLAG 2912 -112 Vcc5
FLAG 3200 224 0
FLAG 3472 224 0
FLAG 3360 224 0
FLAG 3760 -64 DC
FLAG 3648 592 Vo
FLAG 2960 640 0
FLAG 3344 656 0
FLAG 2160 0 Vcc
FLAG 2160 64 Vss
FLAG 1696 512 Vcc
FLAG 1696 448 Vss
FLAG 2000 592 Vcc-5
FLAG 2080 592 0
FLAG 1552 304 Vc
FLAG 2576 496 Vo_triangular
FLAG 2160 464 Vcc
FLAG 2160 528 Vss
FLAG 3008 -128 Vcc
FLAG 3008 -64 Vss
FLAG 3408 560 Vcc
FLAG 3408 624 Vss
FLAG 3024 544 Vcc
FLAG 3024 608 Vss
FLAG -576 1104 VS
FLAG -576 1328 VR
FLAG -208 1312 Vcc
FLAG -208 1344 0
FLAG -208 1120 0
FLAG -208 1088 Vcc
FLAG 144 1184 VQ
FLAG 128 1056 not_VQ
FLAG 2784 624 DC
FLAG 2784 560 Vo_triangular
SYMBOL pnp -352 128 M180
SYMATTR InstName Q2
SYMATTR Value 2N3906
SYMBOL pnp -448 128 R180
SYMATTR InstName Q1
SYMATTR Value 2N3906
SYMBOL npn -448 608 M0
SYMATTR InstName Q3
SYMATTR Value 2N3904
SYMBOL res -304 256 R0
SYMATTR InstName R1
SYMATTR Value 500
SYMBOL res -304 400 R0
SYMATTR InstName R2
SYMATTR Value 500
SYMBOL npn -224 608 M0
SYMATTR InstName Q4
SYMATTR Value 2N3904
SYMBOL npn -112 608 R0
SYMATTR InstName Q5
SYMATTR Value 2N3904
SYMBOL res 96 592 R90
WINDOW 0 0 56 VBottom 2
WINDOW 3 32 56 VTop 2
SYMATTR InstName R3
SYMATTR Value 10k
SYMBOL res 864 480 R90
WINDOW 0 0 56 VBottom 2
WINDOW 3 32 56 VTop 2
SYMATTR InstName R12
SYMATTR Value 50k
SYMBOL res 1008 480 R90
WINDOW 0 0 56 VBottom 2
WINDOW 3 32 56 VTop 2
SYMATTR InstName R13
SYMATTR Value 50k
SYMBOL npn 976 208 R0
SYMATTR InstName Q7
SYMATTR Value 2N3904
SYMBOL npn 784 208 M0
SYMATTR InstName Q6
SYMATTR Value 2N3904
SYMBOL npn 544 112 M0
SYMATTR InstName Q8
SYMATTR Value 2N3904
SYMBOL res 464 208 R0
SYMATTR InstName R6
SYMATTR Value 10k
SYMBOL res 464 -64 R0
SYMATTR InstName R7
SYMATTR Value 450k
SYMBOL cap 1168 112 R0
SYMATTR InstName C1
SYMATTR Value 200n
SYMBOL pnp 784 64 R180
SYMATTR InstName Q9
SYMATTR Value 2N3906
SYMBOL pnp 976 64 M180
SYMATTR InstName Q10
SYMATTR Value 2N3906
SYMBOL nmos 672 496 R0
WINDOW 3 -98 -12 Left 2
SYMATTR Value AP9465GEM
SYMATTR InstName M1
SYMBOL nmos 1088 496 M0
WINDOW 3 -99 -13 Left 2
SYMATTR Value AP9465GEM
SYMATTR InstName M2
SYMBOL voltage -768 -112 R0
WINDOW 123 0 0 Left 2
WINDOW 39 0 0 Left 2
SYMATTR InstName V1
SYMATTR Value 5
SYMBOL voltage -768 64 R0
WINDOW 123 0 0 Left 2
WINDOW 39 0 0 Left 2
SYMATTR InstName V2
SYMATTR Value 15
SYMBOL voltage 32 -816 R0
WINDOW 123 0 0 Left 2
WINDOW 39 0 0 Left 2
SYMATTR InstName V3
SYMATTR Value -15
SYMBOL voltage -256 -832 R0
WINDOW 123 0 0 Left 2
WINDOW 39 0 0 Left 2
SYMATTR InstName V4
SYMATTR Value 5
SYMBOL voltage -160 -832 R0
WINDOW 123 0 0 Left 2
WINDOW 39 0 0 Left 2
SYMATTR InstName V5
SYMATTR Value -5
SYMBOL voltage -512 -832 R0
WINDOW 123 0 0 Left 2
WINDOW 39 0 0 Left 2
SYMATTR InstName Vin1
SYMATTR Value SINE(14 0.1 500)
SYMBOL opamp2 -48 400 R0
SYMATTR InstName U2
SYMATTR Value LM393
SYMBOL opamp2 -64 176 R0
SYMATTR InstName U1
SYMATTR Value LM393
SYMBOL res 704 336 R0
SYMATTR InstName R8
SYMATTR Value 10k
SYMBOL res 1024 336 R0
SYMATTR InstName R9
SYMATTR Value 10k
SYMBOL res 1024 -160 R0
SYMATTR InstName R11
SYMATTR Value 100
SYMBOL res 704 -160 R0
SYMATTR InstName R10
SYMATTR Value 100
SYMBOL res 0 64 R0
SYMATTR InstName R4
SYMATTR Value 3k
SYMBOL res 96 64 R0
SYMATTR InstName R5
SYMATTR Value 3k
SYMBOL cap 1536 48 R0
SYMATTR InstName C2
SYMATTR Value 0.1µ
SYMBOL res 2016 128 R180
WINDOW 0 36 76 Left 2
WINDOW 3 36 40 Left 2
SYMATTR InstName R14
SYMATTR Value 14k
SYMBOL res 1936 0 R90
WINDOW 0 0 56 VBottom 2
WINDOW 3 32 56 VTop 2
SYMATTR InstName R15
SYMATTR Value 20k
SYMBOL res 2304 -96 R90
WINDOW 0 0 56 VBottom 2
WINDOW 3 32 56 VTop 2
SYMATTR InstName R16
SYMATTR Value 10k
SYMBOL res 2416 48 R270
WINDOW 0 32 56 VTop 2
WINDOW 3 0 56 VBottom 2
SYMATTR InstName R17
SYMATTR Value 10k
SYMBOL res 3456 -16 R0
SYMATTR InstName RL1
SYMATTR Value 20k
SYMBOL res 3632 -80 R90
WINDOW 0 0 56 VBottom 2
WINDOW 3 32 56 VTop 2
SYMATTR InstName R18
SYMATTR Value 10k
SYMBOL cap 3344 16 R0
SYMATTR InstName C3
SYMATTR Value 0.01µ
SYMBOL res 3184 -48 R0
SYMATTR InstName R19
SYMATTR Value 80k
SYMBOL res 3184 96 R0
SYMATTR InstName R20
SYMATTR Value 100k
SYMBOL pmos 3152 -80 M180
SYMATTR InstName M3
SYMBOL res 3088 432 R90
WINDOW 0 0 56 VBottom 2
WINDOW 3 32 56 VTop 2
SYMATTR InstName R21
SYMATTR Value 10k
SYMBOL res 3296 560 R90
WINDOW 0 0 56 VBottom 2
WINDOW 3 32 56 VTop 2
SYMATTR InstName R22
SYMATTR Value 10k
SYMBOL res 3472 448 R90
WINDOW 0 0 56 VBottom 2
WINDOW 3 32 56 VTop 2
SYMATTR InstName R23
SYMATTR Value 10k
SYMBOL opamp2 1696 80 M180
SYMATTR InstName U3
SYMATTR Value TL084
SYMBOL opamp2 2160 -32 R0
SYMATTR InstName U4
SYMATTR Value TL084
SYMBOL res 2016 592 R180
WINDOW 0 36 76 Left 2
WINDOW 3 36 40 Left 2
SYMATTR InstName R24
SYMATTR Value 10k
SYMBOL res 1936 464 R90
WINDOW 0 0 56 VBottom 2
WINDOW 3 32 56 VTop 2
SYMATTR InstName R25
SYMATTR Value 10k
SYMBOL res 2304 368 R90
WINDOW 0 0 56 VBottom 2
WINDOW 3 32 56 VTop 2
SYMATTR InstName R26
SYMATTR Value 10k
SYMBOL res 2416 512 R270
WINDOW 0 32 56 VTop 2
WINDOW 3 0 56 VBottom 2
SYMATTR InstName R27
SYMATTR Value 10k
SYMBOL opamp2 1696 544 M180
SYMATTR InstName U5
SYMATTR Value TL084
SYMBOL opamp2 2160 432 R0
SYMATTR InstName U6
SYMATTR Value TL084
SYMBOL opamp2 3008 -160 R0
SYMATTR InstName U7
SYMATTR Value TL084
SYMBOL opamp2 3408 528 R0
SYMATTR InstName U10
SYMATTR Value TL084
SYMBOL opamp2 3024 512 R0
SYMATTR InstName U11
SYMATTR Value TL084
SYMBOL AutoGenerated/CD4001B -272 1088 R0
SYMATTR InstName U8
SYMBOL AutoGenerated/CD4001B -272 1312 R0
SYMATTR InstName U9
TEXT -424 816 Left 2 ;Generador - Primera Etapa
TEXT 616 880 Left 2 ;Generador - Segunda Etapa
TEXT -576 -192 Left 2 !.tran 0 140m 40m uic
TEXT -504 -648 Left 2 !.include TL084.301
TEXT -576 -224 Left 2 !.include LM393.5_1
TEXT 1624 704 Left 2 ;Triangular centrada
TEXT 1680 -176 Left 2 ;Cuadrada centrada
TEXT 2984 -240 Left 2 ;Continua
TEXT 2936 720 Left 2 ;Sumador
TEXT -136 1448 Left 2 ;Flip flop RS
RECTANGLE Normal 372 -200 1268 808 2
RECTANGLE Normal -648 -144 200 764 2
RECTANGLE Normal 1488 -136 2536 208 2
RECTANGLE Normal 2820 -220 3700 264 2
RECTANGLE Normal 2824 384 3604 688 2
RECTANGLE Normal 1488 328 2536 672 2
RECTANGLE Normal -500 936 56 1424 2
