Version 4
SHEET 1 1024 680
WIRE 112 160 -192 160
WIRE 288 176 176 176
WIRE 112 192 -16 192
WIRE 736 192 640 192
WIRE -192 208 -192 160
WIRE 864 208 800 208
WIRE 928 208 864 208
WIRE -16 224 -16 192
WIRE 736 224 688 224
WIRE 688 256 688 224
WIRE 880 256 688 256
WIRE 864 272 864 208
WIRE 864 272 704 272
WIRE 736 320 640 320
WIRE 880 336 880 256
WIRE 880 336 800 336
WIRE 928 336 880 336
WIRE 704 352 704 272
WIRE 736 352 704 352
WIRE -192 384 -192 288
WIRE -16 384 -16 304
FLAG -192 384 0
FLAG -16 384 0
FLAG 640 192 VS
FLAG 640 320 VR
FLAG 928 208 VQ
FLAG 928 336 not_VQ
SYMBOL DigitalLogic/NAND_2 144 176 R0
SYMATTR InstName U1
SYMBOL voltage -192 192 R0
SYMATTR InstName V1
SYMATTR Value PULSE(0 5 0 0.001n 0.001n 1m 10m)
SYMBOL voltage -16 208 R0
SYMATTR InstName V2
SYMATTR Value PULSE(0 5 0 0.001n 0.001n 2.5m 5m)
SYMBOL DigitalLogic/NAND_2 768 208 R0
SYMATTR InstName U2
SYMBOL DigitalLogic/NAND_2 768 336 R0
SYMATTR InstName U3
TEXT 272 40 Left 2 !.tran 20m
