Version 4
SHEET 1 880 680
WIRE 304 240 64 240
WIRE 336 240 304 240
WIRE 528 240 400 240
WIRE 272 256 240 256
WIRE 336 256 272 256
WIRE 528 272 400 272
WIRE 64 288 64 240
WIRE 304 368 304 240
WIRE 336 368 304 368
WIRE 272 384 272 256
WIRE 336 384 272 384
WIRE 528 400 400 400
WIRE 240 464 240 256
WIRE 64 544 64 368
FLAG 240 544 0
FLAG 64 544 0
SYMBOL Digital/and 368 192 R0
SYMATTR InstName A1
SYMBOL Digital/and 368 320 R0
SYMATTR InstName A2
SYMBOL voltage 64 272 R0
WINDOW 3 -364 106 Left 2
SYMATTR InstName V1
SYMATTR Value PULSE(0 2 0 0.001n 0.001n 3m 10m)
SYMBOL voltage 240 448 R0
WINDOW 3 -364 106 Left 2
SYMATTR InstName V2
SYMATTR Value PULSE(0 5 0 0.001n 0.001n 7m 10m)
TEXT 144 88 Left 2 !.tran 100m
