Version 4
SHEET 1 3144 680
WIRE 1184 -176 1056 -176
WIRE 1968 -176 1184 -176
WIRE 1968 -112 1968 -176
WIRE 1904 -80 1568 -80
WIRE 1184 -32 1184 -176
WIRE 1712 0 1680 0
WIRE 1744 0 1712 0
WIRE 1856 0 1824 0
WIRE 1856 48 1856 0
WIRE 1968 48 1968 -48
WIRE 1968 48 1856 48
WIRE 1712 64 1712 0
WIRE 1968 64 1968 48
WIRE 1056 128 1056 -176
WIRE 1184 128 1184 48
WIRE 1568 128 1568 -80
WIRE 1568 128 1184 128
WIRE 1664 128 1568 128
WIRE 1184 144 1184 128
WIRE 1760 144 1760 128
WIRE 1968 144 1760 144
WIRE 1760 192 1248 192
WIRE 1808 192 1760 192
WIRE 1968 192 1968 144
WIRE 1968 192 1888 192
WIRE 1760 224 1760 192
WIRE 1968 224 1968 192
WIRE 1968 320 1968 304
WIRE 1184 368 1184 240
WIRE 1184 448 1184 432
FLAG 1600 0 0
FLAG 1760 304 0
FLAG 1184 448 0
FLAG 1056 208 0
FLAG 1968 320 0
SYMBOL voltage 1056 112 R0
WINDOW 123 0 0 Left 0
WINDOW 39 0 0 Left 0
SYMATTR InstName V2
SYMATTR Value 60
SYMBOL npn 1664 64 M90
SYMATTR InstName Q10
SYMATTR Value 2N3904
SYMBOL res 1840 -16 R90
WINDOW 0 0 56 VBottom 2
WINDOW 3 32 56 VTop 2
SYMATTR InstName R9
SYMATTR Value 2k
SYMBOL res 1696 -16 R90
WINDOW 0 0 56 VBottom 2
WINDOW 3 32 56 VTop 2
SYMATTR InstName R10
SYMATTR Value 2k
SYMBOL res 1904 176 R90
WINDOW 0 0 56 VBottom 2
WINDOW 3 32 56 VTop 2
SYMATTR InstName R1
SYMATTR Value 27k
SYMBOL res 1776 320 R180
WINDOW 0 36 76 Left 2
WINDOW 3 36 40 Left 2
SYMATTR InstName R2
SYMATTR Value 10k
SYMBOL res 1952 48 R0
SYMATTR InstName R14
SYMATTR Value 26
SYMBOL zener 1200 432 R180
WINDOW 0 24 64 Left 2
WINDOW 3 24 0 Left 2
SYMATTR InstName D2
SYMATTR Value D1N4735
SYMATTR Description Diode
SYMATTR Type diode
SYMBOL res 1168 -48 R0
SYMATTR InstName R15
SYMATTR Value 10k
SYMBOL npn 1248 144 M0
SYMATTR InstName Q6
SYMATTR Value 2N3904
SYMBOL AutoGenerated\\bd681 1936 -80 R0
WINDOW 0 -30 -41 Bottom 2
WINDOW 3 -36 39 Top 2
SYMATTR InstName U1
SYMBOL res 1952 208 R0
SYMATTR InstName R13
SYMATTR Value 100
TEXT 1416 312 Left 2 !.tran 20m
TEXT 2128 8 Left 2 !.model D1N4735  D(Is=1.168f Rs=.9756 Ikf=0 N=1 Xti=3 Eg=1.11 Cjo=140p M=.3196\n+               Vj=.75 Fc=.5 Isr=2.613n Nr=2 Bv=6.2 Ibv=4.9984 Nbv=.32088\n+               Ibvl=184.78u Nbvl=.19558 Tbv1=443.55u)
