Version 4
SHEET 1 880 680
WIRE 176 80 0 80
WIRE 320 96 320 32
WIRE 320 96 240 96
WIRE 176 112 96 112
WIRE 368 240 368 112
WIRE 496 240 368 240
WIRE 368 256 368 240
WIRE 496 272 496 240
WIRE -496 304 -496 256
WIRE -336 304 -336 256
WIRE 96 352 96 112
WIRE 368 352 368 336
WIRE 368 352 96 352
WIRE -496 400 -496 384
WIRE -336 400 -336 384
WIRE 496 432 496 336
FLAG 368 16 Vin
FLAG 0 80 Vregf
FLAG 496 432 0
FLAG 368 432 0
FLAG -176 128 Vin
FLAG -176 208 0
FLAG -288 144 Vregf
FLAG -288 224 0
FLAG 496 240 Vo
FLAG -496 400 0
FLAG -336 400 0
FLAG -496 256 V+
FLAG -336 256 V-
FLAG 208 80 V+
FLAG 208 112 V-
SYMBOL nmos 320 112 M180
SYMATTR InstName M1
SYMBOL cap 480 272 R0
SYMATTR InstName C1
SYMATTR Value 10µ
SYMBOL res 352 240 R0
SYMATTR InstName R2
SYMATTR Value 100k
SYMBOL res 352 336 R0
SYMATTR InstName R3
SYMATTR Value 100k
SYMBOL voltage -176 112 R0
WINDOW 123 0 0 Left 2
WINDOW 39 0 0 Left 2
SYMATTR InstName Vin
SYMATTR Value SINE(12 0.1 500)
SYMBOL voltage -288 128 R0
WINDOW 123 0 0 Left 2
WINDOW 39 0 0 Left 2
SYMATTR InstName V2
SYMATTR Value 2
SYMBOL voltage -496 288 R0
WINDOW 123 0 0 Left 2
WINDOW 39 0 0 Left 2
SYMATTR InstName V3
SYMATTR Value 13
SYMBOL voltage -336 288 R0
WINDOW 123 0 0 Left 2
WINDOW 39 0 0 Left 2
SYMATTR InstName V4
SYMATTR Value -13
SYMBOL OP2177 208 32 R0
SYMATTR InstName U1
TEXT -320 456 Left 2 !.tran 50m
