Version 4
SHEET 1 880 680
WIRE -48 160 -384 160
WIRE 176 160 32 160
WIRE -480 272 -512 272
WIRE -384 272 -384 160
WIRE -384 272 -416 272
WIRE -112 272 -384 272
WIRE 176 288 176 160
WIRE 176 288 -32 288
WIRE 272 288 272 272
WIRE 272 288 176 288
WIRE 336 288 272 288
WIRE -112 304 -128 304
WIRE 272 304 272 288
WIRE -512 320 -512 272
WIRE -240 448 -256 448
WIRE -128 448 -128 304
WIRE -128 448 -160 448
WIRE -256 480 -256 448
WIRE -128 480 -128 448
WIRE -16 480 -128 480
WIRE 336 480 336 288
WIRE 336 480 64 480
FLAG 272 384 0
FLAG -64 336 0
FLAG -256 480 0
FLAG -80 240 v+
FLAG -80 336 v-
FLAG 272 192 v+
FLAG -512 320 0
SYMBOL AutoGenerated\\LM111 -80 288 R0
SYMATTR InstName U1
SYMBOL res -144 432 R90
WINDOW 0 0 56 VBottom 2
WINDOW 3 32 56 VTop 2
SYMATTR InstName R1
SYMATTR Value 10k
SYMBOL res 80 464 R90
WINDOW 0 0 56 VBottom 2
WINDOW 3 32 56 VTop 2
SYMATTR InstName R2
SYMATTR Value 11.6k
SYMBOL res 288 400 R180
WINDOW 0 36 76 Left 2
WINDOW 3 36 40 Left 2
SYMATTR InstName R3
SYMATTR Value 10k
SYMBOL res 288 288 R180
WINDOW 0 36 76 Left 2
WINDOW 3 36 40 Left 2
SYMATTR InstName R4
SYMATTR Value 0.5k
SYMBOL res 48 144 R90
WINDOW 0 0 56 VBottom 2
WINDOW 3 32 56 VTop 2
SYMATTR InstName R5
SYMATTR Value 10k
SYMBOL cap -416 256 R90
WINDOW 0 0 32 VBottom 2
WINDOW 3 32 32 VTop 2
SYMATTR InstName c1
SYMATTR Value 0.01µ
SYMATTR SpiceLine V=0.25
TEXT -512 528 Left 2 !;.tran 0 600u 0.1n 1u uic
TEXT -512 568 Left 2 !;.ic V(n001) =0.25
