Version 4
SHEET 1 1684 872
WIRE 864 80 816 80
WIRE 1056 80 944 80
WIRE 1088 80 1056 80
WIRE 1312 80 1152 80
WIRE 544 160 368 160
WIRE 704 176 624 176
WIRE 816 176 816 80
WIRE 816 176 704 176
WIRE 1056 176 1056 80
WIRE 1104 176 1056 176
WIRE 368 192 368 160
WIRE 544 192 464 192
WIRE 1312 192 1312 80
WIRE 1312 192 1184 192
WIRE 1392 192 1392 176
WIRE 1392 192 1312 192
WIRE 1680 192 1392 192
WIRE 1104 208 1056 208
WIRE 1056 240 1056 208
WIRE 592 256 592 224
WIRE 1392 256 1392 192
WIRE 1152 272 1152 240
WIRE 384 336 288 336
WIRE 464 336 464 192
WIRE 544 336 464 336
WIRE 704 336 704 176
WIRE 704 336 624 336
WIRE 288 576 288 336
WIRE 1680 576 1680 192
WIRE 1680 576 288 576
FLAG -416 752 -
FLAG 704 96 +
FLAG -336 752 +
FLAG -416 832 0
FLAG -336 832 0
FLAG 1136 240 -
FLAG 1136 144 +
FLAG 1152 272 0
FLAG 576 224 -
FLAG 576 128 +
FLAG 592 256 0
FLAG 368 192 0
FLAG 1392 96 +
FLAG 1056 240 0
FLAG 1392 336 0
SYMBOL voltage -336 736 R0
WINDOW 123 0 0 Left 0
WINDOW 39 0 0 Left 0
SYMATTR InstName V1
SYMATTR Value 15
SYMBOL voltage -416 736 R0
WINDOW 123 0 0 Left 0
WINDOW 39 0 0 Left 0
SYMATTR InstName V2
SYMATTR Value -15
SYMBOL AutoGenerated\\LM111 1136 192 R0
SYMATTR InstName U2
SYMBOL AutoGenerated\\LM111 576 176 R0
SYMATTR InstName U3
SYMBOL res 688 80 R0
SYMATTR InstName Rp
SYMATTR Value 0.5k
SYMBOL res 480 320 R90
WINDOW 0 0 56 VBottom 2
WINDOW 3 32 56 VTop 2
SYMATTR InstName R1
SYMATTR Value 10k
SYMBOL res 640 320 R90
WINDOW 0 0 56 VBottom 2
WINDOW 3 32 56 VTop 2
SYMATTR InstName Rf
SYMATTR Value 28k
SYMBOL res 960 64 R90
WINDOW 0 0 56 VBottom 2
WINDOW 3 32 56 VTop 2
SYMATTR InstName R
SYMATTR Value 17.5k
SYMBOL res 1408 192 R180
WINDOW 0 36 76 Left 2
WINDOW 3 36 40 Left 2
SYMATTR InstName Rp1
SYMATTR Value 0.5k
SYMBOL res 1408 352 R180
WINDOW 0 36 76 Left 2
WINDOW 3 36 40 Left 2
SYMATTR InstName RL
SYMATTR Value 10k
SYMBOL cap 1152 64 R90
WINDOW 0 0 32 VBottom 2
WINDOW 3 32 32 VTop 2
SYMATTR InstName C1
SYMATTR Value 0.01µ
TEXT -450 856 Left 2 !.tran 0 400u 0 1u
