Version 4
SHEET 1 1140 680
WIRE 752 -16 416 -16
WIRE 976 -16 832 -16
WIRE -896 96 -1120 96
WIRE -240 96 -240 64
WIRE -176 96 -176 64
WIRE 320 96 288 96
WIRE 416 96 416 -16
WIRE 416 96 384 96
WIRE 688 96 416 96
WIRE -1120 112 -1120 96
WIRE -544 112 -672 112
WIRE -368 112 -368 96
WIRE -368 112 -544 112
WIRE 976 112 976 -16
WIRE 976 112 768 112
WIRE 1072 112 1072 96
WIRE 1072 112 976 112
WIRE 1136 112 1072 112
WIRE -816 128 -816 96
WIRE -752 128 -768 128
WIRE -368 128 -368 112
WIRE 688 128 672 128
WIRE 1072 128 1072 112
WIRE 288 144 288 96
WIRE -1120 224 -1120 192
WIRE -880 272 -896 272
WIRE -768 272 -800 272
WIRE 560 272 544 272
WIRE 672 272 672 128
WIRE 672 272 640 272
WIRE -896 304 -896 272
WIRE -768 304 -768 272
WIRE -656 304 -768 304
WIRE -544 304 -544 112
WIRE -544 304 -576 304
WIRE 544 304 544 272
WIRE 672 304 672 272
WIRE 784 304 672 304
WIRE 1136 304 1136 112
WIRE 1136 304 864 304
FLAG -1120 224 0
FLAG -368 208 0
FLAG -704 160 0
FLAG -896 304 0
FLAG -720 64 v+
FLAG -240 -16 v+
FLAG -720 160 v-
FLAG -176 -16 v-
FLAG -368 16 v+
FLAG -240 96 0
FLAG -176 96 0
FLAG 1072 208 0
FLAG 736 160 0
FLAG 544 304 0
FLAG 720 64 v+
FLAG 720 160 v-
FLAG 1072 16 v+
FLAG 288 144 0
SYMBOL AutoGenerated\\LM111 -720 112 R0
SYMATTR InstName U1
SYMBOL voltage -1120 96 R0
WINDOW 123 0 0 Left 0
WINDOW 39 0 0 Left 0
SYMATTR InstName V1
SYMATTR Value SINE(0 10 400)
SYMBOL res -800 80 R90
WINDOW 0 0 56 VBottom 2
WINDOW 3 32 56 VTop 2
SYMATTR InstName R1
SYMATTR Value 6.43k
SYMBOL res -784 256 R90
WINDOW 0 0 56 VBottom 2
WINDOW 3 32 56 VTop 2
SYMATTR InstName R2
SYMATTR Value 10k
SYMBOL res -560 288 R90
WINDOW 0 0 56 VBottom 2
WINDOW 3 32 56 VTop 2
SYMATTR InstName R3
SYMATTR Value 18k
SYMBOL res -352 224 R180
WINDOW 0 36 76 Left 2
WINDOW 3 36 40 Left 2
SYMATTR InstName R4
SYMATTR Value 10k
SYMBOL res -352 112 R180
WINDOW 0 36 76 Left 2
WINDOW 3 36 40 Left 2
SYMATTR InstName R5
SYMATTR Value 0.5k
SYMBOL voltage -240 -32 R0
WINDOW 123 0 0 Left 0
WINDOW 39 0 0 Left 0
SYMATTR InstName V2
SYMATTR Value 15
SYMBOL voltage -176 -32 R0
WINDOW 123 0 0 Left 0
WINDOW 39 0 0 Left 0
SYMATTR InstName V3
SYMATTR Value -15
SYMBOL AutoGenerated\\LM111 720 112 R0
SYMATTR InstName U2
SYMBOL res 656 256 R90
WINDOW 0 0 56 VBottom 2
WINDOW 3 32 56 VTop 2
SYMATTR InstName R7
SYMATTR Value 10k
SYMBOL res 880 288 R90
WINDOW 0 0 56 VBottom 2
WINDOW 3 32 56 VTop 2
SYMATTR InstName R8
SYMATTR Value 11.6k
SYMBOL res 1088 224 R180
WINDOW 0 36 76 Left 2
WINDOW 3 36 40 Left 2
SYMATTR InstName R9
SYMATTR Value 10k
SYMBOL res 1088 112 R180
WINDOW 0 36 76 Left 2
WINDOW 3 36 40 Left 2
SYMATTR InstName R10
SYMATTR Value 0.5k
SYMBOL res 848 -32 R90
WINDOW 0 0 56 VBottom 2
WINDOW 3 32 56 VTop 2
SYMATTR InstName R11
SYMATTR Value 10k
SYMBOL cap 384 80 R90
WINDOW 0 0 32 VBottom 2
WINDOW 3 32 32 VTop 2
SYMATTR InstName c
SYMATTR Value 0.01µ
SYMATTR SpiceLine V=0.25
TEXT -1152 352 Left 2 !;.tran 0 20m 0 1u
TEXT 288 352 Left 2 !.tran 0 600u 0.1n 1u uic
TEXT 288 392 Left 2 !.ic V(n001) =0.25
