Version 4
SHEET 1 2944 1632
WIRE -272 608 -336 608
WIRE -128 608 -192 608
WIRE -624 688 -688 688
WIRE -480 688 -544 688
WIRE -336 704 -336 608
WIRE -272 704 -336 704
WIRE -128 704 -128 608
WIRE -128 704 -208 704
WIRE -1056 720 -1056 656
WIRE -176 800 -192 800
WIRE -832 816 -848 816
WIRE -688 816 -688 688
WIRE -688 816 -752 816
WIRE -656 816 -688 816
WIRE -528 816 -544 816
WIRE -480 816 -480 688
WIRE -448 816 -480 816
WIRE -336 816 -336 704
WIRE -336 816 -368 816
WIRE -288 816 -304 816
WIRE -176 832 -192 832
WIRE -1056 848 -1056 800
WIRE -1056 848 -1088 848
WIRE -656 848 -704 848
WIRE -480 848 -480 816
WIRE -480 848 -544 848
WIRE -336 848 -336 816
WIRE -288 848 -336 848
WIRE -128 864 -128 704
WIRE -128 864 -192 864
WIRE -656 880 -672 880
WIRE -528 880 -544 880
WIRE -1088 896 -1088 848
WIRE -1056 912 -1056 848
WIRE -848 960 -848 816
WIRE -128 960 -128 864
WIRE -128 960 -848 960
WIRE -1056 1072 -1056 992
FLAG -1088 896 0
FLAG -1056 656 5V
FLAG -1056 1072 Vss
FLAG -176 800 5V
FLAG -672 880 5V
FLAG -176 832 Vss
FLAG -704 848 0
FLAG -528 816 Vss
FLAG -304 816 0
FLAG -528 880 Vss
FLAG -480 688 Vo1
FLAG -128 608 Vtri
SYMBOL voltage -1056 704 R0
WINDOW 123 0 0 Left 2
WINDOW 39 0 0 Left 2
SYMATTR InstName V1
SYMATTR Value 5
SYMBOL voltage -1056 896 R0
WINDOW 123 0 0 Left 2
WINDOW 39 0 0 Left 2
SYMATTR InstName V2
SYMATTR Value 5
SYMBOL res -528 704 M270
WINDOW 0 32 56 VTop 2
WINDOW 3 0 56 VBottom 2
SYMATTR InstName R1
SYMATTR Value 10k
SYMBOL res -736 832 M270
WINDOW 0 32 56 VTop 2
WINDOW 3 0 56 VBottom 2
SYMATTR InstName R2
SYMATTR Value 8.2k
SYMBOL cap -208 688 R90
WINDOW 0 0 32 VBottom 2
WINDOW 3 32 32 VTop 2
SYMATTR InstName C1
SYMATTR Value 100p
SYMBOL res -352 800 R90
WINDOW 0 0 56 VBottom 2
WINDOW 3 32 56 VTop 2
SYMATTR InstName R3
SYMATTR Value 15k
SYMBOL res -176 592 R90
WINDOW 0 0 56 VBottom 2
WINDOW 3 32 56 VTop 2
SYMATTR InstName R4
SYMATTR Value 1Meg
SYMBOL AutoGenerated/TLV3501 -608 848 R0
SYMATTR InstName U2
SYMATTR ModelFile /Users/Caro/Documents/FIUBA/MATERIAS/DCE/ProyectoDCE/ETAPA_POTENCIA/CIRCUITO FINAL PROLIJO/triangular_PWM/TLV3501.lib
SYMBOL AutoGenerated/OPA365 -240 832 R0
SYMATTR InstName U1
SYMATTR ModelFile /Users/Caro/Documents/FIUBA/MATERIAS/DCE/ProyectoDCE/ETAPA_POTENCIA/CIRCUITO FINAL PROLIJO/triangular_PWM/OPA365.MOD
TEXT -712 1096 Left 2 !.tran 0 100u startup
