Version 4
SHEET 1 1204 816
WIRE 48 0 -48 0
WIRE 368 0 272 0
WIRE 384 0 368 0
WIRE 560 0 464 0
WIRE 768 0 560 0
WIRE 992 0 992 -48
WIRE 992 0 832 0
WIRE 1104 0 992 0
WIRE 560 16 560 0
WIRE 48 96 0 96
WIRE 464 96 272 96
WIRE 560 96 464 96
WIRE 992 112 992 0
WIRE 1104 112 1104 0
WIRE 560 128 560 96
WIRE 368 144 368 0
WIRE 48 192 -80 192
WIRE 768 192 272 192
WIRE 912 192 848 192
WIRE 944 192 912 192
WIRE -80 208 -80 192
WIRE 464 208 464 96
WIRE 912 208 912 192
WIRE 560 240 560 208
WIRE -80 288 -80 272
WIRE 48 288 -80 288
WIRE 368 288 368 224
WIRE 368 288 272 288
WIRE 464 288 464 272
WIRE 464 288 368 288
WIRE 912 288 912 272
WIRE 912 288 464 288
WIRE 992 288 992 208
WIRE 992 288 912 288
WIRE 1104 288 1104 176
WIRE 1104 288 992 288
WIRE 1136 288 1104 288
WIRE -80 304 -80 288
WIRE 48 384 -80 384
WIRE 384 384 272 384
WIRE 464 384 384 384
WIRE 560 384 560 304
WIRE 560 384 464 384
WIRE 592 384 560 384
WIRE 992 400 992 288
WIRE 992 416 992 400
WIRE 1104 448 1104 288
WIRE -80 480 -80 464
WIRE 48 480 -80 480
WIRE 768 480 272 480
WIRE 912 480 848 480
WIRE 944 480 912 480
WIRE 464 496 464 384
WIRE 912 496 912 480
WIRE 384 528 384 384
WIRE -80 544 -80 480
WIRE 992 560 992 496
WIRE 992 560 912 560
WIRE 48 576 0 576
WIRE 464 576 464 560
WIRE 464 576 272 576
WIRE 0 672 0 576
WIRE 384 672 384 608
WIRE 384 672 0 672
WIRE 384 688 384 672
WIRE -80 800 -80 624
WIRE -80 800 -112 800
WIRE 384 800 384 768
WIRE 384 800 -80 800
WIRE 464 800 464 576
WIRE 464 800 384 800
WIRE 992 800 992 560
WIRE 992 800 464 800
WIRE 1104 800 1104 512
WIRE 1104 800 992 800
FLAG -112 800 0
FLAG 992 -48 VDD_60
FLAG -48 0 VDD
FLAG -80 304 0
FLAG 992 288 Vo1
FLAG 0 96 PWM
FLAG 592 384 VDD
SYMBOL cap 448 208 R0
SYMATTR InstName C1
SYMATTR Value 22n
SYMBOL cap -96 208 R0
SYMATTR InstName Ct1
SYMATTR Value 10p
SYMBOL cap 448 496 R0
SYMATTR InstName C2
SYMATTR Value 22n
SYMBOL nmos 944 112 R0
SYMATTR InstName M1
SYMATTR Value irf510
SYMATTR Prefix X
SYMBOL nmos 944 400 R0
SYMATTR InstName M2
SYMATTR Value irf510
SYMATTR Prefix X
SYMBOL res 544 112 R0
WINDOW 0 37 25 Left 2
WINDOW 3 36 62 Left 2
SYMATTR InstName RD1
SYMATTR Value 0.1
SYMBOL res 864 176 R90
WINDOW 0 0 56 VBottom 2
WINDOW 3 32 56 VTop 2
SYMATTR InstName RG1
SYMATTR Value 22
SYMBOL res 864 464 R90
WINDOW 0 0 56 VBottom 2
WINDOW 3 32 56 VTop 2
SYMATTR InstName RG2
SYMATTR Value 22
SYMBOL res 352 128 R0
SYMATTR InstName R3
SYMATTR Value 3.5k
SYMBOL res 480 -16 R90
WINDOW 0 0 56 VBottom 2
WINDOW 3 32 56 VTop 2
SYMATTR InstName R2
SYMATTR Value 6.5k
SYMBOL res 576 112 R180
WINDOW 0 36 76 Left 2
WINDOW 3 36 40 Left 2
SYMATTR InstName R1
SYMATTR Value 10k
SYMBOL res -96 528 R0
SYMATTR InstName R5
SYMATTR Value 5.4k
SYMBOL res -96 368 R0
SYMATTR InstName R4
SYMATTR Value 4.6k
SYMBOL IRS20954 160 288 R0
SYMATTR InstName X1
SYMBOL diode 1120 176 R180
WINDOW 0 -25 62 Left 2
WINDOW 3 -81 2 Left 2
SYMATTR InstName D1
SYMATTR Value MUR460
SYMBOL diode 1120 512 R180
WINDOW 0 -20 65 Left 2
WINDOW 3 -80 -2 Left 2
SYMATTR InstName D2
SYMATTR Value MUR460
SYMBOL diode 768 16 R270
WINDOW 0 32 32 VTop 2
WINDOW 3 0 32 VBottom 2
SYMATTR InstName D3
SYMATTR Value BAV21
SYMBOL cap 896 208 R0
SYMATTR InstName C3
SYMATTR Value 1n
SYMBOL cap 896 496 R0
WINDOW 0 32 6 Left 2
WINDOW 3 36 47 Left 2
SYMATTR InstName C4
SYMATTR Value 1n
SYMBOL diode 576 304 R180
WINDOW 0 -23 63 Left 2
WINDOW 3 -81 1 Left 2
SYMATTR InstName D4
SYMATTR Value 1N4448
SYMBOL res 368 672 R0
SYMATTR InstName R7
SYMATTR Value 2.5k
SYMBOL res 368 512 R0
SYMATTR InstName R6
SYMATTR Value 7.5k
