Version 4
SHEET 1 13828 1048
WIRE 768 -784 736 -784
WIRE 2080 -784 2048 -784
WIRE 736 -752 736 -784
WIRE 2080 -752 2080 -784
WIRE 1568 -656 1552 -656
WIRE 1584 -656 1568 -656
WIRE 1456 -608 1440 -608
WIRE 1552 -608 1552 -656
WIRE 1552 -608 1536 -608
WIRE 1120 -432 1104 -432
WIRE 1264 -432 1200 -432
WIRE 1296 -432 1264 -432
WIRE 1552 -432 1520 -432
WIRE 1584 -432 1552 -432
WIRE 1120 -336 1104 -336
WIRE 1264 -336 1200 -336
WIRE 1296 -336 1264 -336
WIRE 1552 -336 1520 -336
WIRE 1584 -336 1552 -336
WIRE 1136 -240 1104 -240
WIRE 1264 -240 1200 -240
WIRE 1296 -240 1264 -240
WIRE 1552 -240 1520 -240
WIRE 1584 -240 1552 -240
WIRE 1584 -224 1584 -240
WIRE 1296 -144 1280 -144
WIRE 1584 -144 1584 -160
WIRE 1584 -144 1520 -144
WIRE 1584 -128 1584 -144
WIRE 1264 -48 1216 -48
WIRE 1296 -48 1264 -48
WIRE 1552 -48 1520 -48
WIRE 1584 -48 1552 -48
WIRE 1120 48 1104 48
WIRE 1264 48 1200 48
WIRE 1296 48 1264 48
WIRE 1552 48 1520 48
WIRE 1584 48 1552 48
WIRE 1584 64 1584 48
WIRE 1120 144 1104 144
WIRE 1264 144 1200 144
WIRE 1296 144 1264 144
WIRE 1584 144 1584 128
WIRE 1584 144 1520 144
WIRE 1584 160 1584 144
WIRE 736 512 736 480
WIRE 768 512 736 512
WIRE 2080 512 2080 480
WIRE 2080 512 2048 512
FLAG 1104 48 0
FLAG 1264 144 DT
FLAG 1584 -128 0
FLAG 1552 -240 Ho
FLAG 1584 160 0
FLAG 1552 48 Lo
FLAG 1104 -336 0
FLAG 1264 -336 In
FLAG 1552 -336 15V
FLAG 1552 -48 15V
FLAG 1104 -432 0
FLAG 1264 -432 15V
FLAG 1552 -432 CsH
FLAG 1264 -240 CSD
FLAG 1264 -48 Vref
FLAG 1104 144 0
FLAG 1264 48 OCset
FLAG 1104 -240 0
FLAG 1280 -144 0
FLAG 1440 -608 0
FLAG 1568 -656 CsH
FLAG 1584 -432 0
SYMBOL voltage 1216 -336 R90
WINDOW 0 -16 16 VBottom 2
WINDOW 3 48 -16 VRight 2
WINDOW 123 0 0 Left 2
WINDOW 39 0 0 Left 2
SYMATTR InstName V1
SYMATTR Value PULSE(0 3.7 1u 1n 1n 1u 4u)
SYMBOL voltage 1216 -432 R90
WINDOW 0 -32 56 VBottom 2
WINDOW 3 32 56 VTop 2
SYMATTR InstName V2
SYMATTR Value 15
SYMBOL IRS20954 1408 -144 R0
SYMBOL cap 1200 -256 R90
WINDOW 0 0 32 VBottom 2
WINDOW 3 32 32 VTop 2
SYMATTR InstName C1
SYMATTR Value 10p
SYMBOL voltage 1552 -608 R90
WINDOW 0 -32 56 VBottom 2
WINDOW 3 32 56 VTop 2
WINDOW 123 0 0 Left 2
WINDOW 39 0 0 Left 2
SYMATTR InstName V3
SYMATTR Value PULSE(0 3 12u 1n 1n 3u 1m)
SYMBOL voltage 1216 48 R90
WINDOW 0 -32 56 VBottom 2
WINDOW 3 32 56 VTop 2
SYMATTR InstName V4
SYMATTR Value 1.2
SYMBOL voltage 1216 144 R90
WINDOW 0 -16 16 VBottom 2
WINDOW 3 32 56 VTop 2
SYMATTR InstName V5
SYMATTR Value 15
SYMBOL cap 1568 -224 R0
SYMATTR InstName C2
SYMATTR Value 1n
SYMBOL cap 1568 64 R0
SYMATTR InstName C3
SYMATTR Value 1n
TEXT 1760 -528 Left 2 ;Vb Zos: 220V\nVddZos: 210V\nVccZ: 20.2V\nVb Z: 20.2V\nVddZ: 10.4V\nTd on: 90ns+Tdt\nTd off: 90ns\nTsd:  < 1us\nTr on: 15ns\nTf off: 10ns\nTdt: 15/25/35/45ns\nVdt: .89/.57/.36/.23\nVHin: 2.3\nVLin: 1.5\nVHsat: 1.2\nRos: 5e6\nRb: 12k\nRcc: 7k\nRdd: 22k\nRin: 1e6\nUVL Vcc: 8.9/8.7V\nUVL Vb:  8.5/8.3V\nUVL Vdd: 8.7/8.2V\nIo+: 1.0A\nIo-: 1.2A\nVoc: 70/30 %Vdd\nIoc: +/-100ua\nOCH: 1.2Vos\n 300ns filter\nOCL: 0.0Vos\n 200ns filter
TEXT 992 224 Left 2 !.tran 0 30u 0 10n uic
TEXT 992 248 Left 2 !.options plotwinsize=0
RECTANGLE Normal 2064 496 752 -768
