Version 4
SHEET 1 1384 680
WIRE 1008 -176 768 -176
WIRE 160 -160 32 -160
WIRE 288 -160 224 -160
WIRE 416 -160 288 -160
WIRE 512 -160 416 -160
WIRE 416 -128 416 -160
WIRE 848 -128 768 -128
WIRE 880 -128 848 -128
WIRE 1008 -128 1008 -176
WIRE 1008 -128 960 -128
WIRE 1184 -128 1008 -128
WIRE 1264 -128 1184 -128
WIRE 32 -80 32 -160
WIRE 1264 -80 1264 -128
WIRE 288 -64 288 -160
WIRE 848 -32 848 -128
WIRE 1008 -32 1008 -128
WIRE 1184 -32 1184 -128
WIRE 416 16 416 -64
WIRE 432 16 416 16
WIRE 528 16 528 -96
WIRE 528 16 512 16
WIRE 528 48 528 16
WIRE 288 160 288 0
WIRE 528 160 528 128
WIRE 528 160 288 160
WIRE 720 160 720 -96
WIRE 720 160 528 160
WIRE 848 160 848 32
WIRE 848 160 720 160
WIRE 1008 160 1008 32
WIRE 1008 160 848 160
WIRE 1184 160 1184 32
WIRE 1184 160 1008 160
WIRE 1264 160 1184 160
FLAG 32 0 0
FLAG 1264 160 Vout
FLAG 1264 -80 0
SYMBOL AutoGenerated\\LM2596_03 608 -144 R0
SYMATTR InstName U1
SYMBOL diode 160 -144 R270
WINDOW 0 32 32 VTop 2
WINDOW 3 0 32 VBottom 2
SYMATTR InstName D1
SYMATTR Value 1N5823
SYMBOL voltage 32 -96 R0
WINDOW 123 0 0 Left 0
WINDOW 39 0 0 Left 0
SYMATTR InstName V1
SYMATTR Value 5
SYMBOL cap 272 -64 R0
SYMATTR InstName C1
SYMATTR Value 68µ
SYMBOL cap 400 -128 R0
SYMATTR InstName C2
SYMATTR Value 0.1µ
SYMBOL res 528 0 R90
WINDOW 0 0 56 VBottom 2
WINDOW 3 32 56 VTop 2
SYMATTR InstName R1
SYMATTR Value 47k
SYMBOL res 512 32 R0
SYMATTR InstName R2
SYMATTR Value 47k
SYMBOL diode 864 32 R180
WINDOW 0 24 64 Left 2
WINDOW 3 24 0 Left 2
SYMATTR InstName D2
SYMATTR Value 1N5825
SYMBOL ind 864 -112 R270
WINDOW 0 32 56 VTop 2
WINDOW 3 5 56 VBottom 2
SYMATTR InstName L1
SYMATTR Value 33µ
SYMBOL cap 992 -32 R0
SYMATTR InstName C3
SYMATTR Value 47µ
SYMBOL diode 1200 32 R180
WINDOW 0 24 64 Left 2
WINDOW 3 24 0 Left 2
SYMATTR InstName D3
SYMATTR Value 1N5400
TEXT -304 240 Left 2 !.model 1N5823 D is=0.0000691458 rs=0.00765586 n=1.11919 tt=25p cjo=720p eg=.69 bv=20 ibv=10m Vpk=70 Type=Schottky mfg=Micosemi
TEXT -304 216 Left 2 !.model 1N5825 D is=0.000310769 rs=0.00573583 n=1.41179 tt=25p cjo=575p eg=.69 bv=40 ibv=10m Vpk=70 Type=Schottky mfg=Micosemi
TEXT -306 260 Left 2 !.tran 30m
TEXT -24 -296 Left 2 !.MODEL 1N5400 D  ( IS=63.0n RS=14.1m BV=50.0 IBV=10.0u \n+ CJO=125p  M=0.333 N=1.70 TT=4.32u )
