Version 4
SHEET 1 1496 680
WIRE 48 80 -96 80
WIRE 496 80 256 80
WIRE -96 128 -96 80
WIRE 336 128 256 128
WIRE 368 128 336 128
WIRE 496 128 496 80
WIRE 496 128 448 128
WIRE 624 128 496 128
WIRE 336 224 336 128
WIRE 496 224 496 128
WIRE -96 352 -96 192
WIRE 144 416 144 160
WIRE 240 416 240 160
WIRE 240 416 144 416
WIRE 336 416 336 288
WIRE 336 416 240 416
WIRE 496 416 496 288
WIRE 496 416 336 416
FLAG 496 416 0
FLAG -96 352 0
FLAG -96 80 IN
IOPIN -96 80 In
FLAG 624 128 OUT
IOPIN 624 128 Out
SYMBOL cap -112 128 R0
SYMATTR InstName C1
SYMATTR Value 680µ
SYMBOL diode 352 288 R180
WINDOW 0 24 64 Left 2
WINDOW 3 24 0 Left 2
SYMATTR InstName D1
SYMATTR Value 1N5824
SYMBOL ind 352 144 R270
WINDOW 0 32 56 VTop 2
WINDOW 3 5 56 VBottom 2
SYMATTR InstName L1
SYMATTR Value 33µ
SYMBOL cap 480 224 R0
SYMATTR InstName C2
SYMATTR Value 220µ
SYMBOL AutoGenerated\\LM2596_05 144 112 R0
SYMATTR InstName U1
TEXT -176 448 Left 2 !.model 1N5824 D is=0.000159893 rs=0.00669584 n=1.26549 tt=25p cjo=620p eg=.69 bv=30 ibv=10m Vpk=70 Type=Schottky mfg=Micosemi
