Version 4
SHEET 1 1384 680
WIRE -416 -176 -608 -176
WIRE -224 -176 -416 -176
WIRE -144 -176 -224 -176
WIRE 64 -176 -48 -176
WIRE 160 -176 64 -176
WIRE 288 -176 224 -176
WIRE 416 -176 288 -176
WIRE 560 -176 416 -176
WIRE 1008 -176 768 -176
WIRE 416 -128 416 -176
WIRE 848 -128 768 -128
WIRE 880 -128 848 -128
WIRE 1008 -128 1008 -176
WIRE 1008 -128 960 -128
WIRE 1184 -128 1008 -128
WIRE 1264 -128 1184 -128
WIRE -416 -112 -416 -176
WIRE 1264 -80 1264 -128
WIRE -608 -64 -608 -96
WIRE -224 -64 -224 -176
WIRE -96 -64 -96 -112
WIRE -96 -64 -128 -64
WIRE 288 -64 288 -176
WIRE 848 -32 848 -128
WIRE 1008 -32 1008 -128
WIRE 1184 -32 1184 -128
WIRE 416 16 416 -64
WIRE 496 16 416 16
WIRE 656 16 656 -96
WIRE 656 16 576 16
WIRE -416 32 -416 -32
WIRE -176 32 -176 0
WIRE -176 32 -416 32
WIRE -96 32 -176 32
WIRE 656 48 656 16
WIRE -96 96 -96 32
WIRE 288 160 288 0
WIRE 656 160 656 128
WIRE 656 160 288 160
WIRE 752 160 752 -96
WIRE 752 160 656 160
WIRE 848 160 848 32
WIRE 848 160 752 160
WIRE 1008 160 1008 32
WIRE 1008 160 848 160
WIRE 1184 160 1184 32
WIRE 1184 160 1008 160
WIRE 1264 160 1184 160
WIRE -96 176 -96 160
FLAG -608 -64 0
FLAG 1264 160 -5V
FLAG 1264 -80 0
FLAG -96 176 0
FLAG -96 32 Vz
FLAG -416 -176 Vi
FLAG 64 -112 0
SYMBOL diode 160 -160 R270
WINDOW 0 32 32 VTop 2
WINDOW 3 0 32 VBottom 2
SYMATTR InstName D1
SYMATTR Value 1N5823
SYMBOL voltage -608 -192 R0
WINDOW 123 0 0 Left 0
WINDOW 39 0 0 Left 0
SYMATTR InstName V1
SYMATTR Value PULSE(60 12 0 1p 1p 30m)
SYMBOL cap 272 -64 R0
SYMATTR InstName C1
SYMATTR Value 470µ
SYMBOL cap 400 -128 R0
SYMATTR InstName C2
SYMATTR Value 0.1µ
SYMBOL res 592 0 R90
WINDOW 0 0 56 VBottom 2
WINDOW 3 32 56 VTop 2
SYMATTR InstName R1
SYMATTR Value 47k
SYMBOL res 640 32 R0
SYMATTR InstName R2
SYMATTR Value 47k
SYMBOL diode 864 32 R180
WINDOW 0 24 64 Left 2
WINDOW 3 24 0 Left 2
SYMATTR InstName D2
SYMATTR Value 1N5825
SYMBOL ind 864 -112 R270
WINDOW 0 32 56 VTop 2
WINDOW 3 5 56 VBottom 2
SYMATTR InstName L1
SYMATTR Value 33µ
SYMBOL cap 992 -32 R0
SYMATTR InstName C3
SYMATTR Value 220µ
SYMBOL diode 1200 32 R180
WINDOW 0 24 64 Left 2
WINDOW 3 24 0 Left 2
SYMATTR InstName D3
SYMATTR Value 1N5400
SYMBOL AutoGenerated\\LM2596_05 656 -144 R0
SYMATTR InstName U1
SYMBOL npn -144 -112 R270
SYMATTR InstName Q1
SYMATTR Value TIP41C
SYMBOL zener -80 160 R180
WINDOW 0 24 64 Left 2
WINDOW 3 24 0 Left 2
SYMATTR InstName D4
SYMATTR Value TFZ12B
SYMATTR Description Diode
SYMATTR Type diode
SYMBOL npn -224 0 R270
SYMATTR InstName Q2
SYMATTR Value 2N2222
SYMBOL res -432 -128 R0
SYMATTR InstName R3
SYMATTR Value 1k
SYMATTR SpiceLine tol=1 pwr=0.1
SYMBOL cap 48 -176 R0
SYMATTR InstName C4
SYMATTR Value 480µ
SYMATTR SpiceLine V=4 Irms=0 Rser=0 Lser=0
TEXT -360 400 Left 2 !.model 1N5823 D is=0.0000691458 rs=0.00765586 n=1.11919 tt=25p cjo=720p eg=.69 bv=20 ibv=10m Vpk=70 Type=Schottky mfg=Micosemi
TEXT -360 376 Left 2 !.model 1N5825 D is=0.000310769 rs=0.00573583 n=1.41179 tt=25p cjo=575p eg=.69 bv=40 ibv=10m Vpk=70 Type=Schottky mfg=Micosemi
TEXT -360 424 Left 2 !.tran 40m
TEXT -24 -296 Left 2 !.MODEL 1N5400 D  ( IS=63.0n RS=14.1m BV=50.0 IBV=10.0u \n+ CJO=125p  M=0.333 N=1.70 TT=4.32u )
TEXT -360 352 Left 2 !.inc TIP41C.lib
