Version 4
SHEET 1 1100 680
WIRE 544 -256 -112 -256
WIRE -112 -144 -112 -256
WIRE -32 -144 -112 -144
WIRE 144 -144 48 -144
WIRE 208 -144 144 -144
WIRE 336 -144 288 -144
WIRE -480 -48 -496 -48
WIRE -352 -48 -416 -48
WIRE -224 -48 -352 -48
WIRE -80 -48 -224 -48
WIRE 144 -48 144 -144
WIRE 144 -48 128 -48
WIRE -224 0 -224 -48
WIRE 208 0 160 0
WIRE 240 0 208 0
WIRE 368 0 320 0
WIRE 544 0 544 -256
WIRE 544 0 368 0
WIRE 624 0 544 0
WIRE 160 16 160 0
WIRE 160 16 128 16
WIRE 624 48 624 0
WIRE -352 64 -352 -48
WIRE 208 96 208 0
WIRE 368 96 368 0
WIRE 544 96 544 0
WIRE -48 128 -48 48
WIRE 16 128 -48 128
WIRE -224 144 -224 64
WIRE -144 144 -224 144
WIRE 16 144 16 128
WIRE 16 144 -64 144
WIRE 16 176 16 144
WIRE 80 256 80 48
WIRE 112 256 80 256
WIRE -352 288 -352 128
WIRE 16 288 16 256
WIRE 16 288 -352 288
WIRE 112 288 112 256
WIRE 112 288 16 288
WIRE 208 288 208 160
WIRE 208 288 112 288
WIRE 336 288 336 -144
WIRE 336 288 208 288
WIRE 368 288 368 160
WIRE 368 288 336 288
WIRE 544 288 544 160
WIRE 544 288 368 288
WIRE 640 288 544 288
WIRE 784 288 720 288
WIRE 992 288 784 288
WIRE 784 304 784 288
FLAG 624 48 0
FLAG 784 384 0
FLAG 544 288 -2.5V
FLAG -496 -48 IN
IOPIN -496 -48 In
FLAG 992 288 OUT
IOPIN 992 288 Out
SYMBOL diode -480 -32 R270
WINDOW 0 32 32 VTop 2
WINDOW 3 0 32 VBottom 2
SYMATTR InstName D1
SYMATTR Value 1N5823
SYMBOL cap -368 64 R0
SYMATTR InstName C1
SYMATTR Value 470µ
SYMBOL cap -240 0 R0
SYMATTR InstName C2
SYMATTR Value 0.1µ
SYMBOL res -48 128 R90
WINDOW 0 0 56 VBottom 2
WINDOW 3 32 56 VTop 2
SYMATTR InstName R1
SYMATTR Value 47k
SYMBOL res 0 160 R0
SYMATTR InstName R2
SYMATTR Value 47k
SYMBOL diode 224 160 R180
WINDOW 0 24 64 Left 2
WINDOW 3 24 0 Left 2
SYMATTR InstName D2
SYMATTR Value 1N5825
SYMBOL ind 224 16 R270
WINDOW 0 32 56 VTop 2
WINDOW 3 5 56 VBottom 2
SYMATTR InstName L1
SYMATTR Value 33µ
SYMBOL cap 352 96 R0
SYMATTR InstName C3
SYMATTR Value 220µ
SYMBOL diode 560 160 R180
WINDOW 0 24 64 Left 2
WINDOW 3 24 0 Left 2
SYMATTR InstName D3
SYMATTR Value 1N5400
SYMBOL res 64 -160 R90
WINDOW 0 0 56 VBottom 2
WINDOW 3 32 56 VTop 2
SYMATTR InstName R3
SYMATTR Value 1k
SYMBOL res 304 -160 R90
WINDOW 0 0 56 VBottom 2
WINDOW 3 32 56 VTop 2
SYMATTR InstName R4
SYMATTR Value 1k
SYMBOL AutoGenerated\\LM2596_ADJ 16 0 R0
SYMATTR InstName U1
SYMBOL res 736 272 R90
WINDOW 0 0 56 VBottom 2
WINDOW 3 32 56 VTop 2
SYMATTR InstName R5
SYMATTR Value 18k
SYMBOL res 768 288 R0
SYMATTR InstName R6
SYMATTR Value 2k
TEXT -530 408 Left 2 !.tran 10m
TEXT -1000 488 Left 2 !.model 1N5823 D is=0.0000691458 rs=0.00765586 n=1.11919 tt=25p cjo=720p eg=.69 bv=20 ibv=10m Vpk=70 Type=Schottky mfg=Micosemi
TEXT -1000 512 Left 2 !.model 1N5825 D is=0.000310769 rs=0.00573583 n=1.41179 tt=25p cjo=575p eg=.69 bv=40 ibv=10m Vpk=70 Type=Schottky mfg=Micosemi
TEXT -1000 536 Left 2 !.MODEL 1N5400 D  ( IS=63.0n RS=14.1m BV=50.0 IBV=10.0u \n+ CJO=125p  M=0.333 N=1.70 TT=4.32u )
