Version 4
SHEET 1 1496 680
WIRE 496 -32 336 -32
WIRE 336 0 336 -32
WIRE 336 0 224 0
WIRE -96 16 -176 16
WIRE 16 16 -96 16
WIRE 336 32 224 32
WIRE 368 32 336 32
WIRE 496 32 496 -32
WIRE 496 32 448 32
WIRE 640 32 496 32
WIRE 16 48 -16 48
WIRE 864 64 864 32
WIRE -96 80 -96 16
WIRE 336 96 336 32
WIRE 496 96 496 32
WIRE -528 112 -528 80
WIRE 864 192 864 144
WIRE -96 224 -96 144
WIRE -16 224 -16 48
WIRE -16 224 -96 224
WIRE 224 224 224 64
WIRE 224 224 -16 224
WIRE 336 224 336 160
WIRE 336 224 224 224
WIRE 496 224 496 160
WIRE 496 224 336 224
WIRE 224 272 224 224
FLAG -528 192 0
FLAG 864 192 0
FLAG -272 16 Vin
FLAG 864 32 Vout
FLAG -528 80 Vin
FLAG 224 272 0
FLAG -176 16 IN
IOPIN -176 16 In
FLAG 640 32 OUT
IOPIN 640 32 Out
SYMBOL cap -112 80 R0
SYMATTR InstName C1
SYMATTR Value 120µ
SYMBOL diode 352 160 R180
WINDOW 0 24 64 Left 2
WINDOW 3 24 0 Left 2
SYMATTR InstName D1
SYMATTR Value 1N5824
SYMBOL ind 352 48 R270
WINDOW 0 32 56 VTop 2
WINDOW 3 5 56 VBottom 2
SYMATTR InstName L1
SYMATTR Value 22µ
SYMBOL cap 480 96 R0
SYMATTR InstName C2
SYMATTR Value 560µ
SYMBOL LM2596_05 112 32 R0
SYMATTR InstName U1
SYMBOL voltage -528 96 R0
SYMATTR InstName V1
SYMATTR Value 10.5
SYMBOL res 848 48 R0
SYMATTR InstName R1
SYMATTR Value 25
TEXT -176 448 Left 2 !.model 1N5824 D is=0.000159893 rs=0.00669584 n=1.26549 tt=25p cjo=620p eg=.69 bv=30 ibv=10m Vpk=70 Type=Schottky mfg=Micosemi
TEXT -544 -152 Left 2 !.tran 10m
