Version 4
SHEET 1 4548 2064
WIRE 496 -80 320 -80
WIRE 624 -80 624 -144
WIRE 624 -80 496 -80
WIRE 816 -80 624 -80
WIRE -1136 -64 -1168 -64
WIRE -976 -64 -1024 -64
WIRE -512 -64 -512 -192
WIRE -512 -64 -624 -64
WIRE -400 -64 -512 -64
WIRE -1168 -48 -1168 -64
WIRE -1168 -48 -1200 -48
WIRE 496 -48 496 -80
WIRE 816 -48 816 -80
WIRE -1312 -32 -1552 -32
WIRE -1152 -16 -1200 -16
WIRE -976 -16 -976 -64
WIRE -976 -16 -1152 -16
WIRE -1552 0 -1552 -32
WIRE -624 0 -624 -64
WIRE -400 0 -400 -64
WIRE -48 16 -48 -192
WIRE -48 16 -96 16
WIRE 0 16 -48 16
WIRE -1152 48 -1152 -16
WIRE -1152 48 -1408 48
WIRE -528 48 -560 48
WIRE -464 48 -528 48
WIRE -96 48 -96 16
WIRE 0 48 0 16
WIRE 320 48 320 -80
WIRE 496 64 496 32
WIRE 816 64 816 32
WIRE -1120 80 -1168 80
WIRE -848 80 -1008 80
WIRE -1552 112 -1552 80
WIRE 592 112 560 112
WIRE 752 112 592 112
WIRE -1408 128 -1408 48
WIRE -1344 128 -1408 128
WIRE -1168 128 -1168 80
WIRE -1168 128 -1232 128
WIRE -624 128 -624 96
WIRE -528 128 -528 48
WIRE -528 128 -624 128
WIRE -1168 176 -1168 128
WIRE -1120 176 -1168 176
WIRE -848 176 -1008 176
WIRE 320 176 320 128
WIRE 416 176 320 176
WIRE -400 192 -400 96
WIRE -208 192 -400 192
WIRE 496 192 496 160
WIRE 592 192 592 112
WIRE 592 192 496 192
WIRE 816 192 816 160
WIRE 912 192 912 -144
WIRE 912 192 816 192
WIRE 944 192 912 192
WIRE -96 208 -96 128
WIRE -96 208 -144 208
WIRE 128 208 -96 208
WIRE 320 208 320 176
WIRE 944 208 944 192
WIRE -208 224 -288 224
WIRE 416 256 416 176
WIRE 416 256 384 256
WIRE 592 256 416 256
WIRE -400 272 -400 192
WIRE 496 304 496 192
WIRE 816 304 816 192
WIRE 944 304 944 272
WIRE -288 320 -288 224
WIRE 128 320 -288 320
WIRE 320 320 320 304
WIRE -1024 352 -1376 352
WIRE 592 352 592 256
WIRE 592 352 560 352
WIRE 752 352 592 352
WIRE -400 400 -400 352
WIRE -400 400 -448 400
WIRE -1136 416 -1200 416
WIRE -1024 416 -1024 352
WIRE -928 416 -1024 416
WIRE -288 416 -288 320
WIRE -192 416 -288 416
WIRE 320 416 320 400
WIRE -1376 432 -1376 352
WIRE -1312 432 -1376 432
WIRE 0 432 0 128
WIRE 0 432 -128 432
WIRE 128 432 0 432
WIRE -192 448 -288 448
WIRE 496 448 496 400
WIRE 816 448 816 400
WIRE -1312 464 -1472 464
WIRE -400 480 -400 400
WIRE -1136 544 -1136 416
WIRE -1136 544 -1360 544
WIRE -928 544 -1136 544
WIRE -304 544 -304 480
WIRE -128 576 -240 576
WIRE -400 592 -400 560
WIRE -288 592 -288 448
WIRE -288 592 -400 592
WIRE 496 592 496 528
WIRE 544 592 496 592
WIRE 656 592 624 592
WIRE 688 592 656 592
WIRE 816 592 816 528
WIRE 816 592 768 592
WIRE -624 624 -624 128
WIRE -400 624 -400 592
WIRE -128 624 -128 576
WIRE -128 624 -160 624
WIRE -112 624 -128 624
WIRE 112 624 -32 624
WIRE -1024 640 -1024 416
WIRE -1024 640 -1200 640
WIRE -1360 656 -1360 544
WIRE -1312 656 -1360 656
WIRE 656 656 656 592
WIRE -336 672 -560 672
WIRE -240 672 -240 576
WIRE -240 672 -336 672
WIRE -224 672 -240 672
WIRE -1312 688 -1488 688
WIRE 496 688 496 592
WIRE 816 688 816 592
WIRE -624 736 -624 720
WIRE -400 736 -400 720
WIRE -160 736 -160 720
WIRE 448 768 208 768
WIRE 1056 768 864 768
WIRE 496 864 496 784
WIRE 816 864 816 784
WIRE -1040 896 -1088 896
WIRE -912 896 -960 896
WIRE -1552 976 -1632 976
WIRE -1440 976 -1552 976
WIRE -1344 992 -1376 992
WIRE -1296 992 -1344 992
WIRE -1152 992 -1216 992
WIRE -1088 992 -1088 896
WIRE -1088 992 -1152 992
WIRE -1040 992 -1088 992
WIRE -1440 1008 -1488 1008
WIRE -1152 1008 -1152 992
WIRE -912 1008 -912 896
WIRE -912 1008 -976 1008
WIRE -832 1008 -912 1008
WIRE -544 1008 -608 1008
WIRE -1552 1024 -1552 976
WIRE -1040 1024 -1088 1024
WIRE -416 1024 -416 960
WIRE -416 1024 -480 1024
WIRE -544 1040 -576 1040
WIRE -368 1056 -368 1040
WIRE -240 1056 -368 1056
WIRE -144 1056 -240 1056
WIRE -64 1056 -144 1056
WIRE 480 1056 432 1056
WIRE 624 1056 560 1056
WIRE -1488 1072 -1488 1008
WIRE -1344 1072 -1344 992
WIRE -1344 1072 -1488 1072
WIRE -1152 1104 -1152 1088
WIRE -1088 1104 -1088 1024
WIRE -1552 1120 -1552 1088
WIRE -240 1136 -240 1056
WIRE -368 1152 -368 1056
WIRE -144 1152 -144 1056
WIRE 272 1168 208 1168
WIRE 400 1168 352 1168
WIRE 432 1168 432 1056
WIRE 432 1168 400 1168
WIRE 480 1168 432 1168
WIRE 624 1184 624 1056
WIRE 624 1184 544 1184
WIRE 688 1184 624 1184
WIRE 832 1184 768 1184
WIRE 880 1184 832 1184
WIRE 1024 1184 960 1184
WIRE 480 1200 448 1200
WIRE 448 1248 448 1200
WIRE -1040 1264 -1104 1264
WIRE -912 1264 -960 1264
WIRE 272 1264 144 1264
WIRE -576 1280 -576 1040
WIRE -368 1280 -368 1232
WIRE -368 1280 -576 1280
WIRE -368 1296 -368 1280
WIRE 832 1296 832 1184
WIRE 880 1296 832 1296
WIRE 1024 1312 1024 1184
WIRE 1024 1312 944 1312
WIRE 1152 1312 1024 1312
WIRE 880 1328 848 1328
WIRE -1472 1344 -1648 1344
WIRE -240 1344 -240 1200
WIRE -144 1344 -144 1232
WIRE -1360 1360 -1408 1360
WIRE -1312 1360 -1360 1360
WIRE -1168 1360 -1232 1360
WIRE -1104 1360 -1104 1264
WIRE -1104 1360 -1168 1360
WIRE -1056 1360 -1104 1360
WIRE 272 1360 144 1360
WIRE 400 1360 400 1168
WIRE 400 1360 352 1360
WIRE -1472 1376 -1520 1376
WIRE -1168 1376 -1168 1360
WIRE -912 1376 -912 1264
WIRE -912 1376 -992 1376
WIRE -848 1376 -912 1376
WIRE 848 1376 848 1328
WIRE -1056 1392 -1104 1392
WIRE -368 1392 -368 1376
WIRE -1520 1440 -1520 1376
WIRE -1360 1440 -1360 1360
WIRE -1360 1440 -1520 1440
WIRE -1168 1472 -1168 1456
WIRE -1104 1472 -1104 1392
FLAG -160 736 0
FLAG -400 736 0
FLAG -624 736 0
FLAG 320 416 0
FLAG 944 304 0
FLAG 624 -144 15V
FLAG 656 656 5V
FLAG 816 864 0
FLAG 496 864 0
FLAG 112 624 15V
FLAG 128 208 VS
FLAG 128 432 VR
FLAG -448 400 5V
FLAG 128 320 Vc
FLAG 1056 768 VQ
FLAG 208 768 not_VQ
FLAG 912 -144 Vc
FLAG -208 -528 Vss
FLAG -208 -448 0
FLAG -704 -528 Vin
FLAG -704 -448 0
FLAG -176 176 15V
FLAG -176 240 0
FLAG -160 400 15V
FLAG -160 464 0
FLAG -400 192 A
FLAG -400 592 B
FLAG -1408 1024 15V
FLAG -1408 960 Vss
FLAG -1552 1120 0
FLAG -1152 1104 Vss
FLAG -1088 1104 0
FLAG -1632 976 VQ
FLAG -832 1008 Vo_cuadrada
FLAG 1152 1312 Vo
FLAG 448 1248 0
FLAG -1008 976 15V
FLAG -1008 1040 Vss
FLAG -1440 1392 15V
FLAG -1440 1328 Vss
FLAG -1168 1472 Vss
FLAG -1104 1472 0
FLAG -1648 1344 Vc
FLAG -848 1376 Vo_triangular
FLAG -1024 1344 15V
FLAG -1024 1408 Vss
FLAG 512 1152 15V
FLAG 512 1216 Vss
FLAG -1472 464 VS
FLAG -1488 688 VR
FLAG -1200 672 Vcc5
FLAG -1200 704 0
FLAG -1200 480 0
FLAG -928 544 VQ
FLAG -928 416 not_VQ
FLAG 208 1168 Vo_cuadrada
FLAG 144 1264 Vo_triangular
FLAG -240 1344 0
FLAG -64 1056 DC
FLAG -512 992 15V
FLAG -512 1056 Vss
FLAG -368 944 Vin
FLAG -144 1344 0
FLAG 144 1360 DC
FLAG 848 1376 0
FLAG 912 1280 15V
FLAG 912 1344 Vss
FLAG -608 1008 0
FLAG -1552 112 0
FLAG -848 80 5V
FLAG -848 176 15V
FLAG -2400 80 0
FLAG -2400 0 Vcc5
FLAG -1200 448 Vcc5
FLAG -512 -192 15V
FLAG -48 -192 15V
FLAG -368 1392 Vss
SYMBOL pnp -464 96 M180
SYMATTR InstName Q2
SYMATTR Value 2N3906
SYMBOL pnp -560 96 R180
SYMATTR InstName Q1
SYMATTR Value 2N3906
SYMBOL npn -560 624 M0
SYMATTR InstName Q3
SYMATTR Value 2N3904
SYMBOL res -416 256 R0
SYMATTR InstName R1
SYMATTR Value 425
SYMBOL res -416 464 R0
SYMATTR InstName R2
SYMATTR Value 500
SYMBOL npn -336 624 M0
SYMATTR InstName Q4
SYMATTR Value 2N3904
SYMBOL npn -224 624 R0
SYMATTR InstName Q5
SYMATTR Value 2N3904
SYMBOL res -16 608 R90
WINDOW 0 0 56 VBottom 2
WINDOW 3 32 56 VTop 2
SYMATTR InstName R3
SYMATTR Value 10k
SYMBOL res 640 576 R90
WINDOW 0 0 56 VBottom 2
WINDOW 3 32 56 VTop 2
SYMATTR InstName R12
SYMATTR Value 50k
SYMBOL res 784 576 R90
WINDOW 0 0 56 VBottom 2
WINDOW 3 32 56 VTop 2
SYMATTR InstName R13
SYMATTR Value 50k
SYMBOL npn 752 304 R0
SYMATTR InstName Q7
SYMATTR Value 2N3904
SYMBOL npn 560 304 M0
SYMATTR InstName Q6
SYMATTR Value 2N3904
SYMBOL npn 384 208 M0
SYMATTR InstName Q8
SYMATTR Value 2N3904
SYMBOL res 304 304 R0
SYMATTR InstName R6
SYMATTR Value 10k
SYMBOL res 304 32 R0
SYMATTR InstName R7
SYMATTR Value 39k
SYMBOL cap 928 208 R0
SYMATTR InstName C1
SYMATTR Value 200n
SYMBOL pnp 560 160 R180
WINDOW 0 69 18 Left 2
WINDOW 3 48 59 Left 2
SYMATTR InstName Q9
SYMATTR Value 2N3906
SYMBOL pnp 752 160 M180
WINDOW 0 59 23 Left 2
WINDOW 3 57 62 Left 2
SYMATTR InstName Q10
SYMATTR Value 2N3906
SYMBOL voltage -208 -544 R0
WINDOW 123 0 0 Left 2
WINDOW 39 0 0 Left 2
SYMATTR InstName V3
SYMATTR Value -5
SYMBOL voltage -704 -544 R0
WINDOW 123 0 0 Left 2
WINDOW 39 0 0 Left 2
SYMATTR InstName Vin1
SYMATTR Value SINE(14 0.1 500)
SYMBOL opamp2 -160 368 R0
SYMATTR InstName U2
SYMATTR Value LM393
SYMBOL opamp2 -176 144 R0
SYMATTR InstName U1
SYMATTR Value LM393
SYMBOL res 480 432 R0
SYMATTR InstName R8
SYMATTR Value 10k
SYMBOL res 800 432 R0
SYMATTR InstName R9
SYMATTR Value 10k
SYMBOL res 800 -64 R0
SYMATTR InstName R11
SYMATTR Value 100
SYMBOL res 480 -64 R0
SYMATTR InstName R10
SYMATTR Value 100
SYMBOL res -112 32 R0
SYMATTR InstName R4
SYMATTR Value 3k
SYMBOL res -16 32 R0
SYMATTR InstName R5
SYMATTR Value 3k
SYMBOL cap -1568 1024 R0
SYMATTR InstName C2
SYMATTR Value 0.1µ
SYMBOL res -1136 1104 R180
WINDOW 0 36 76 Left 2
WINDOW 3 36 40 Left 2
SYMATTR InstName R14
SYMATTR Value 40k
SYMBOL res -1200 976 R90
WINDOW 0 0 56 VBottom 2
WINDOW 3 32 56 VTop 2
SYMATTR InstName R15
SYMATTR Value 20k
SYMBOL res -944 880 R90
WINDOW 0 0 56 VBottom 2
WINDOW 3 32 56 VTop 2
SYMATTR InstName R16
SYMATTR Value 3.9k
SYMBOL res 576 1040 R90
WINDOW 0 0 56 VBottom 2
WINDOW 3 32 56 VTop 2
SYMATTR InstName R23
SYMATTR Value 10k
SYMBOL opamp2 -1408 1056 M180
SYMATTR InstName U3
SYMATTR Value TL084
SYMBOL opamp2 -1008 944 R0
SYMATTR InstName U4
SYMATTR Value TL084
SYMBOL res -1152 1472 R180
WINDOW 0 36 76 Left 2
WINDOW 3 36 40 Left 2
SYMATTR InstName R24
SYMATTR Value 10k
SYMBOL res -1216 1344 R90
WINDOW 0 0 56 VBottom 2
WINDOW 3 32 56 VTop 2
SYMATTR InstName R25
SYMATTR Value 10k
SYMBOL res -944 1248 R90
WINDOW 0 0 56 VBottom 2
WINDOW 3 32 56 VTop 2
SYMATTR InstName R26
SYMATTR Value 6.8k
SYMBOL opamp2 -1440 1424 M180
SYMATTR InstName U5
SYMATTR Value TL084
SYMBOL opamp2 -1024 1312 R0
SYMATTR InstName U6
SYMATTR Value TL084
SYMBOL opamp2 512 1120 R0
SYMATTR InstName U10
SYMATTR Value TL084
SYMBOL nmos 448 688 R0
SYMATTR InstName M1
SYMATTR Value 2N7000
SYMATTR Prefix X
SYMBOL nmos 864 688 M0
SYMATTR InstName M2
SYMATTR Value 2N7000
SYMATTR Prefix X
SYMBOL res 368 1152 R90
WINDOW 0 0 56 VBottom 2
WINDOW 3 32 56 VTop 2
SYMATTR InstName R28
SYMATTR Value 10k
SYMBOL cap -256 1136 R0
SYMATTR InstName C3
SYMATTR Value 0.01µ
SYMBOL res -384 1136 R0
SYMATTR InstName R17
SYMATTR Value 10k
SYMBOL pmos -416 1040 M180
SYMATTR InstName M3
SYMBOL opamp2 -512 960 R0
SYMATTR InstName U7
SYMATTR Value TL084
SYMBOL res -384 1280 R0
SYMATTR InstName R19
SYMATTR Value 100k
SYMBOL AutoGenerated/SN74HC02 -1264 448 R0
SYMATTR InstName U8
SYMBOL AutoGenerated/SN74HC02 -1264 672 R0
SYMATTR InstName U9
SYMBOL res -160 1136 R0
SYMATTR InstName RL
SYMATTR Value 10k
SYMBOL res 976 1168 R90
WINDOW 0 0 56 VBottom 2
WINDOW 3 32 56 VTop 2
SYMATTR InstName R20
SYMATTR Value 33k
SYMBOL opamp2 912 1248 R0
SYMATTR InstName U12
SYMATTR Value TL084
SYMBOL res 784 1168 R90
WINDOW 0 0 56 VBottom 2
WINDOW 3 32 56 VTop 2
SYMATTR InstName R22
SYMATTR Value 17k
SYMBOL res 368 1344 R90
WINDOW 0 0 56 VBottom 2
WINDOW 3 32 56 VTop 2
SYMATTR InstName R18
SYMATTR Value 10k
SYMBOL regulador -1296 128 R0
SYMATTR InstName ReguladorLineal
SYMBOL voltage -1552 -16 R0
SYMATTR InstName Fuente
SYMATTR Value 12
SYMBOL Relay -1264 -32 R0
WINDOW 0 0 -40 Bottom 2
SYMATTR InstName Relay
SYMBOL LM7805 -1072 80 R0
SYMATTR InstName LM7805
SYMBOL LM7815 -1072 176 R0
SYMATTR InstName LM7815
SYMBOL voltage -2400 -16 R0
SYMATTR InstName Vcc5
SYMATTR Value 5.0965242
SYMBOL res 368 1248 R90
WINDOW 0 0 56 VBottom 2
WINDOW 3 32 56 VTop 2
SYMATTR InstName R21
SYMATTR Value 10k
SYMBOL StepUp_ideal -1088 -64 R0
SYMATTR InstName step-up
TEXT -416 -160 Left 2 ;Generador - Primera Etapa
TEXT 248 -120 Left 2 ;Generador - Segunda Etapa
TEXT -1208 -416 Left 2 !.tran 0 100m 40m uic
TEXT -1688 -456 Left 2 !.include TL084.301
TEXT -1688 -384 Left 2 !.include LM393.5_1
TEXT -1384 1192 Left 2 ;Triangular centrada
TEXT -1408 832 Left 2 ;Cuadrada centrada
TEXT 240 968 Left 2 ;Sumador
TEXT -1392 312 Left 2 ;Flip flop RS
TEXT -1688 -416 Left 2 !.include 2N7000.lib
TEXT -632 880 Left 2 ;Continua
TEXT -416 1120 Left 2 ;Potenciometro
TEXT 744 1104 Left 2 ;Potenciometro
TEXT -1296 -152 Left 2 ;Regulador de tension
TEXT -464 248 Left 2 ;Potenciometro
TEXT -464 440 Left 2 ;Potenciometro
TEXT 280 24 Left 2 ;Potenciometro
TEXT 600 528 Left 2 ;Potenciometro
RECTANGLE Normal -420 1136 -280 1264 2
RECTANGLE Normal 672 1116 988 1236 2
RECTANGLE Normal -1440 -132 -920 232 2
RECTANGLE Normal -440 264 -312 364 2
RECTANGLE Normal -440 456 -312 556 2
RECTANGLE Normal -760 -140 84 776 2
RECTANGLE Normal -1440 328 -980 772 2
RECTANGLE Normal 232 -104 1020 896 2
RECTANGLE Normal -636 900 -24 1444 2
RECTANGLE Normal -1600 1208 -876 1524 2
RECTANGLE Normal 232 996 1072 1444 2
RECTANGLE Normal -888 852 -1600 1152 2
RECTANGLE Normal 280 44 400 144 2
RECTANGLE Normal 536 544 772 648 2
