Version 4
SHEET 1 1384 680
WIRE 864 -1296 816 -1296
WIRE 992 -1296 928 -1296
WIRE 560 -1184 480 -1184
WIRE 816 -1184 816 -1296
WIRE 816 -1184 640 -1184
WIRE 848 -1184 816 -1184
WIRE 992 -1184 992 -1296
WIRE 992 -1184 928 -1184
WIRE 400 -1040 64 -1040
WIRE 560 -1040 400 -1040
WIRE 816 -1040 816 -1184
WIRE 816 -1040 768 -1040
WIRE 64 -992 64 -1040
WIRE 400 -992 400 -1040
WIRE 832 -992 816 -992
WIRE 864 -992 832 -992
WIRE 992 -992 992 -1184
WIRE 992 -992 944 -992
WIRE 1248 -992 992 -992
WIRE 816 -976 816 -992
WIRE 816 -976 768 -976
WIRE 832 -896 832 -992
WIRE 992 -896 992 -992
WIRE 1248 -896 1248 -912
WIRE 400 -768 400 -928
WIRE 480 -704 480 -1184
WIRE 592 -704 592 -944
WIRE 592 -704 480 -704
WIRE 720 -704 720 -944
WIRE 720 -704 592 -704
WIRE 832 -704 832 -832
WIRE 832 -704 720 -704
WIRE 992 -704 992 -832
WIRE 992 -704 832 -704
WIRE -1024 -672 -1616 -672
WIRE -1024 -624 -1024 -672
WIRE 416 -608 64 -608
WIRE 560 -608 416 -608
WIRE 1008 -608 768 -608
WIRE -1088 -576 -1488 -576
WIRE 416 -560 416 -608
WIRE 848 -560 768 -560
WIRE 880 -560 848 -560
WIRE 1008 -560 1008 -608
WIRE 1008 -560 960 -560
WIRE 1264 -560 1008 -560
WIRE -1616 -464 -1616 -672
WIRE 848 -464 848 -560
WIRE 1008 -464 1008 -560
WIRE 1264 -464 1264 -480
WIRE -1344 -416 -1392 -416
WIRE -1216 -416 -1264 -416
WIRE -1168 -416 -1216 -416
WIRE -1024 -416 -1024 -528
WIRE -1024 -416 -1088 -416
WIRE -384 -416 -400 -416
WIRE -1024 -400 -1024 -416
WIRE -640 -400 -672 -400
WIRE -512 -400 -640 -400
WIRE -384 -400 -384 -416
WIRE -368 -400 -384 -400
WIRE -224 -400 -256 -400
WIRE -384 -384 -400 -384
WIRE -1216 -352 -1216 -416
WIRE 416 -336 416 -496
WIRE -384 -320 -384 -384
WIRE -208 -320 -224 -320
WIRE -192 -320 -208 -320
WIRE -16 -320 -80 -320
WIRE -1616 -288 -1616 -384
WIRE -1488 -288 -1488 -576
WIRE -1488 -288 -1616 -288
WIRE -1264 -288 -1488 -288
WIRE -1024 -288 -1024 -320
WIRE -1024 -288 -1168 -288
WIRE 656 -272 656 -528
WIRE 752 -272 752 -528
WIRE 752 -272 656 -272
WIRE 848 -272 848 -400
WIRE 848 -272 752 -272
WIRE 1008 -272 1008 -400
WIRE 1008 -272 848 -272
WIRE -208 -240 -208 -320
WIRE -1616 -208 -1616 -288
WIRE -96 -192 -96 -240
WIRE 64 -176 64 -608
WIRE 64 -176 32 -176
WIRE 160 -176 64 -176
WIRE 288 -176 224 -176
WIRE 416 -176 288 -176
WIRE 560 -176 416 -176
WIRE 1008 -176 768 -176
WIRE -1392 -160 -1552 -160
WIRE -1296 -160 -1392 -160
WIRE -1024 -160 -1024 -288
WIRE -1024 -160 -1216 -160
WIRE 416 -128 416 -176
WIRE 848 -128 768 -128
WIRE 880 -128 848 -128
WIRE 1008 -128 1008 -176
WIRE 1008 -128 960 -128
WIRE 1184 -128 1008 -128
WIRE 1264 -128 1184 -128
WIRE -1392 -80 -1392 -160
WIRE 1264 -80 1264 -128
WIRE -1616 -64 -1616 -112
WIRE 288 -64 288 -176
WIRE 848 -32 848 -128
WIRE 1008 -32 1008 -128
WIRE 1184 -32 1184 -128
WIRE 416 16 416 -64
WIRE 496 16 416 16
WIRE 656 16 656 -96
WIRE 656 16 576 16
WIRE 656 48 656 16
WIRE -1616 80 -1616 0
WIRE -1392 80 -1392 0
WIRE -1024 80 -1024 0
WIRE 288 160 288 0
WIRE 656 160 656 128
WIRE 656 160 288 160
WIRE 752 160 752 -96
WIRE 752 160 656 160
WIRE 848 160 848 32
WIRE 848 160 752 160
WIRE 1008 160 1008 32
WIRE 1008 160 848 160
WIRE 1184 160 1184 32
WIRE 1184 160 1008 160
WIRE 1264 160 1184 160
WIRE 1264 256 1264 240
FLAG 1264 160 -5V
FLAG 64 -112 0
FLAG 1008 -272 0
FLAG 416 -336 0
FLAG 1264 -80 0
FLAG 1264 256 0
FLAG -672 -240 0
FLAG 1264 -560 5V
FLAG 1264 -464 0
FLAG 992 -704 0
FLAG 400 -768 0
FLAG 1248 -992 ADJ
FLAG 1248 -896 0
FLAG 64 -912 0
FLAG -640 -400 Vin
FLAG -96 -112 0
FLAG -1392 80 0
FLAG -1616 80 0
FLAG -1392 -416 0
FLAG -1024 80 0
FLAG -96 -240 v11
FLAG -1616 -672 v1
FLAG -1024 -160 vo
FLAG 32 -176 vo
FLAG -672 -400 v11
FLAG -224 -400 v1
SYMBOL diode 160 -160 R270
WINDOW 0 32 32 VTop 2
WINDOW 3 0 32 VBottom 2
SYMATTR InstName D1
SYMATTR Value 1N5823
SYMBOL cap 272 -64 R0
SYMATTR InstName C1
SYMATTR Value 470µ
SYMBOL cap 400 -128 R0
SYMATTR InstName C2
SYMATTR Value 0.1µ
SYMBOL res 592 0 R90
WINDOW 0 0 56 VBottom 2
WINDOW 3 32 56 VTop 2
SYMATTR InstName R1
SYMATTR Value 47k
SYMBOL res 640 32 R0
SYMATTR InstName R2
SYMATTR Value 47k
SYMBOL diode 864 32 R180
WINDOW 0 24 64 Left 2
WINDOW 3 24 0 Left 2
SYMATTR InstName D2
SYMATTR Value 1N5825
SYMBOL ind 864 -112 R270
WINDOW 0 32 56 VTop 2
WINDOW 3 5 56 VBottom 2
SYMATTR InstName L1
SYMATTR Value 33µ
SYMBOL cap 992 -32 R0
SYMATTR InstName C3
SYMATTR Value 220µ
SYMBOL diode 1200 32 R180
WINDOW 0 24 64 Left 2
WINDOW 3 24 0 Left 2
SYMATTR InstName D3
SYMATTR Value 1N5400
SYMBOL AutoGenerated\\LM2596_05 656 -144 R0
SYMATTR InstName U1
SYMBOL cap 48 -176 R0
SYMATTR InstName C4
SYMATTR Value 480µ
SYMATTR SpiceLine V=4 Irms=0 Rser=0 Lser=0
SYMBOL cap 400 -560 R0
SYMATTR InstName C6
SYMATTR Value 680µ
SYMBOL diode 864 -400 R180
WINDOW 0 24 64 Left 2
WINDOW 3 24 0 Left 2
SYMATTR InstName D5
SYMATTR Value 1N5824
SYMBOL ind 864 -544 R270
WINDOW 0 32 56 VTop 2
WINDOW 3 5 56 VBottom 2
SYMATTR InstName L2
SYMATTR Value 33µ
SYMBOL cap 992 -464 R0
SYMATTR InstName C7
SYMATTR Value 220µ
SYMBOL AutoGenerated\\LM2596_05 656 -576 R0
SYMATTR InstName U2
SYMBOL res 1248 144 R0
SYMATTR InstName R4
SYMATTR Value 50
SYMBOL regulador -144 -320 R0
SYMATTR InstName X1
SYMBOL voltage -672 -336 R0
WINDOW 123 0 0 Left 0
WINDOW 39 0 0 Left 0
SYMATTR InstName V2
SYMATTR Value PULSE(12 30 80m 1p 1p 20m)
SYMBOL res 1248 -576 R0
SYMATTR InstName R5
SYMATTR Value 50
SYMBOL cap 384 -992 R0
SYMATTR InstName C5
SYMATTR Value 470µ
SYMBOL ind 848 -976 R270
WINDOW 0 32 56 VTop 2
WINDOW 3 5 56 VBottom 2
SYMATTR InstName L3
SYMATTR Value 68µ
SYMBOL cap 976 -896 R0
SYMATTR InstName C8
SYMATTR Value 220µ
SYMBOL res 1232 -1008 R0
SYMATTR InstName R6
SYMATTR Value 50
SYMBOL diode 848 -832 R180
WINDOW 0 24 64 Left 2
WINDOW 3 24 0 Left 2
SYMATTR InstName D7
SYMATTR Value 1N5825
SYMBOL res 656 -1200 R90
WINDOW 0 0 56 VBottom 2
WINDOW 3 32 56 VTop 2
SYMATTR InstName R7
SYMATTR Value 1k
SYMBOL res 944 -1200 R90
WINDOW 0 0 56 VBottom 2
WINDOW 3 32 56 VTop 2
SYMATTR InstName R8
SYMATTR Value 822
SYMBOL cap 928 -1312 R90
WINDOW 0 0 32 VBottom 2
WINDOW 3 32 32 VTop 2
SYMATTR InstName C9
SYMATTR Value 330µ
SYMBOL voltage 64 -1008 R0
WINDOW 123 0 0 Left 0
WINDOW 39 0 0 Left 0
SYMATTR InstName V3
SYMATTR Value 25
SYMBOL AutoGenerated\\LM2596_ADJ 656 -992 R0
SYMATTR InstName U3
SYMBOL Relay -464 -400 R0
SYMATTR InstName X2
SYMBOL StepUp_ideal -320 -400 R0
SYMATTR InstName X3
SYMBOL voltage -96 -208 R0
WINDOW 123 0 0 Left 0
WINDOW 39 0 0 Left 0
SYMATTR InstName V1
SYMATTR Value PULSE(12 30 10m 1p 1p 10m)
SYMBOL npn -1264 -352 M90
SYMATTR InstName Q1
SYMATTR Value 2N3904
SYMBOL res -1072 -432 R90
WINDOW 0 0 56 VBottom 2
WINDOW 3 32 56 VTop 2
SYMATTR InstName R3
SYMATTR Value 2k
SYMBOL res -1248 -432 R90
WINDOW 0 0 56 VBottom 2
WINDOW 3 32 56 VTop 2
SYMATTR InstName R9
SYMATTR Value 2k
SYMBOL res -1200 -176 R90
WINDOW 0 0 56 VBottom 2
WINDOW 3 32 56 VTop 2
SYMATTR InstName R10
SYMATTR Value 27k
SYMBOL res -1376 16 R180
WINDOW 0 36 76 Left 2
WINDOW 3 36 40 Left 2
SYMATTR InstName R11
SYMATTR Value 10k
SYMBOL res -1040 -416 R0
SYMATTR InstName R12
SYMATTR Value 26
SYMBOL zener -1600 0 R180
WINDOW 0 24 64 Left 2
WINDOW 3 24 0 Left 2
SYMATTR InstName D4
SYMATTR Value D1N4735
SYMATTR Description Diode
SYMATTR Type diode
SYMBOL res -1632 -480 R0
SYMATTR InstName R13
SYMATTR Value 10k
SYMBOL npn -1552 -208 M0
SYMATTR InstName Q2
SYMATTR Value 2N3904
SYMBOL npn -1088 -624 R0
SYMATTR InstName Q3
SYMATTR Value BD681
SYMATTR Prefix X
SYMBOL res -1040 -96 R0
SYMATTR InstName R14
SYMATTR Value 100
TEXT -360 400 Left 2 !.model 1N5823 D is=0.0000691458 rs=0.00765586 n=1.11919 tt=25p cjo=720p eg=.69 bv=20 ibv=10m Vpk=70 Type=Schottky mfg=Micosemi
TEXT -360 376 Left 2 !.model 1N5825 D is=0.000310769 rs=0.00573583 n=1.41179 tt=25p cjo=575p eg=.69 bv=40 ibv=10m Vpk=70 Type=Schottky mfg=Micosemi
TEXT -360 424 Left 2 !;step V1 15 60 5
TEXT -360 352 Left 2 !.inc TIP41C.lib
TEXT -312 240 Left 2 !;step temp 0 100 50
TEXT -600 -128 Left 2 !;.tran 0 100m 40m uic
TEXT -344 496 Left 2 !.MODEL 1N5400 D  ( IS=63.0n RS=14.1m BV=50.0 IBV=10.0u \n+ CJO=125p  M=0.333 N=1.70 TT=4.32u )
TEXT -360 456 Left 2 !.model 1N5824 D is=0.000159893 rs=0.00669584 n=1.26549 tt=25p cjo=620p eg=.69 bv=30 ibv=10m Vpk=70 Type=Schottky mfg=Micosemi
TEXT -808 -136 Left 2 !.tran 50m
TEXT -1416 -896 Left 2 !.include D1N4735.LIB
TEXT -1408 -856 Left 2 !.include BD681.LIB
