Version 4
SHEET 1 880 680
WIRE 96 48 -96 48
WIRE 176 48 96 48
WIRE -96 112 -96 48
WIRE 96 160 96 48
WIRE 224 160 224 112
WIRE 224 160 192 160
WIRE -96 256 -96 192
WIRE 144 256 144 224
WIRE 144 256 -96 256
WIRE 224 256 144 256
WIRE 224 320 224 256
WIRE 224 400 224 384
FLAG 224 400 0
FLAG 224 256 Vz
FLAG -96 48 IN
IOPIN -96 48 In
FLAG 272 48 OUT
IOPIN 272 48 Out
SYMBOL npn 176 112 R270
SYMATTR InstName Q1
SYMATTR Value TIP41C
SYMBOL zener 240 384 R180
WINDOW 0 24 64 Left 2
WINDOW 3 24 0 Left 2
SYMATTR InstName D1
SYMATTR Value TFZ12B
SYMATTR Description Diode
SYMATTR Type diode
SYMBOL npn 96 224 R270
SYMATTR InstName Q2
SYMATTR Value 2N2222
SYMBOL res -112 96 R0
SYMATTR InstName R1
SYMATTR Value 1k
SYMATTR SpiceLine tol=1 pwr=0.1
TEXT -64 -48 Left 2 !.inc TIP41C.lib
