Version 4
SHEET 1 1836 680
WIRE 32 -112 -416 -112
WIRE 176 -112 32 -112
WIRE 384 -112 176 -112
WIRE 880 -112 384 -112
WIRE 32 -64 32 -112
WIRE 176 -64 176 -112
WIRE 32 32 32 0
WIRE 176 32 176 0
WIRE 704 80 656 80
WIRE 880 80 880 -112
WIRE 880 80 784 80
WIRE 880 96 880 80
WIRE 384 112 384 -112
WIRE 160 160 -384 160
WIRE 224 160 160 160
WIRE 656 160 656 80
WIRE 656 160 544 160
WIRE 880 208 880 176
WIRE 944 208 880 208
WIRE 1072 208 1008 208
WIRE 1168 208 1072 208
WIRE 1328 208 1168 208
WIRE 1472 208 1328 208
WIRE 160 256 160 160
WIRE 224 256 160 256
WIRE 880 256 880 208
WIRE 880 256 544 256
WIRE 880 272 880 256
WIRE 1072 288 1072 208
WIRE 1168 320 1168 208
WIRE 1328 320 1328 208
WIRE -16 352 -144 352
WIRE 224 352 -16 352
WIRE 832 352 544 352
WIRE -16 368 -16 352
WIRE -384 400 -384 160
WIRE -144 400 -144 352
WIRE 880 432 880 368
WIRE 224 448 128 448
WIRE 624 448 544 448
WIRE 1072 448 1072 368
WIRE 1072 448 624 448
WIRE -16 464 -16 448
WIRE 624 464 624 448
WIRE -384 544 -384 464
WIRE -144 544 -144 464
WIRE -144 544 -384 544
WIRE -16 544 -16 528
WIRE -16 544 -144 544
WIRE 128 544 128 528
WIRE 128 544 -16 544
WIRE 384 544 384 496
WIRE 384 544 128 544
WIRE 624 544 384 544
WIRE 880 544 880 512
WIRE 880 544 624 544
WIRE 1168 544 1168 384
WIRE 1168 544 880 544
WIRE 1328 544 1328 384
WIRE 1328 544 1168 544
WIRE 384 656 384 544
FLAG 384 656 0
FLAG 32 32 0
FLAG 176 32 0
FLAG 1472 208 OUT
IOPIN 1472 208 Out
FLAG -416 -112 IN
IOPIN -416 -112 In
SYMBOL LTC1871 384 304 R0
SYMATTR InstName U1
SYMBOL ind 864 80 R0
SYMATTR InstName L1
SYMATTR Value 6.8µ
SYMBOL schottky 944 224 R270
WINDOW 0 32 32 VTop 2
WINDOW 3 0 32 VBottom 2
SYMATTR InstName D1
SYMATTR Value MBR735
SYMATTR Description Diode
SYMATTR Type diode
SYMBOL cap -400 400 R0
SYMATTR InstName C3
SYMATTR Value 4.7µ
SYMBOL res 112 432 R0
SYMATTR InstName RT
SYMATTR Value 100k
SYMBOL res 608 448 R0
SYMATTR InstName R1
SYMATTR Value 12.4k
SYMBOL res -32 352 R0
SYMATTR InstName RC
SYMATTR Value 24k
SYMBOL cap -32 464 R0
SYMATTR InstName C1
SYMATTR Value 2200p
SYMBOL cap -160 400 R0
SYMATTR InstName C2
SYMATTR Value 100p
SYMBOL nmos 832 272 R0
WINDOW 0 51 35 Left 2
SYMATTR InstName M1
SYMATTR Value IRF7811
SYMBOL polcap 1312 320 R0
WINDOW 40 28 62 Left 2
WINDOW 3 47 35 Left 2
SYMATTR SpiceLine2 x2
SYMATTR Value 68µ
SYMATTR InstName C7
SYMATTR SpiceLine Rser=.05
SYMBOL cap 1152 320 R0
WINDOW 3 41 34 Left 2
WINDOW 40 25 59 Left 2
SYMATTR Value 10µ
SYMATTR SpiceLine2 x2
SYMATTR InstName C8
SYMATTR SpiceLine Rser=1m
SYMBOL polcap 16 -64 R0
SYMATTR InstName C5
SYMATTR Value 560µ
SYMBOL cap 160 -64 R0
WINDOW 3 34 30 Left 2
WINDOW 39 24 55 Left 2
SYMATTR Value 10µ
SYMATTR SpiceLine x2
SYMATTR InstName C6
SYMBOL res 800 64 R90
WINDOW 0 0 56 VBottom 2
WINDOW 3 32 56 VTop 2
SYMATTR InstName R3
SYMATTR Value 1Meg
SYMBOL res 1056 272 R0
SYMATTR InstName R2
SYMATTR Value 340K
SYMBOL res 864 416 R0
SYMATTR InstName R4
SYMATTR Value 5m
SYMBOL LTC1871-7 384 304 R0
SYMATTR InstName U2
TEXT 40 -232 Left 2 !.tran 0 10 0 startup
