Version 4
SHEET 1 1836 680
WIRE -32 -112 -304 -112
WIRE 112 -112 -32 -112
WIRE 320 -112 112 -112
WIRE 816 -112 320 -112
WIRE -32 -64 -32 -112
WIRE 112 -64 112 -112
WIRE -32 32 -32 0
WIRE 112 32 112 0
WIRE 640 80 592 80
WIRE 816 80 816 -112
WIRE 816 80 720 80
WIRE 816 96 816 80
WIRE 320 112 320 -112
WIRE 96 160 -448 160
WIRE 160 160 96 160
WIRE 592 160 592 80
WIRE 592 160 480 160
WIRE 816 208 816 176
WIRE 880 208 816 208
WIRE 1008 208 944 208
WIRE 1104 208 1008 208
WIRE 1264 208 1104 208
WIRE 1472 208 1264 208
WIRE 1808 208 1584 208
WIRE 96 256 96 160
WIRE 160 256 96 256
WIRE 816 256 816 208
WIRE 816 256 480 256
WIRE 816 272 816 256
WIRE 1008 288 1008 208
WIRE 1104 320 1104 208
WIRE 1264 320 1264 208
WIRE -80 352 -208 352
WIRE 160 352 -80 352
WIRE 768 352 480 352
WIRE -80 368 -80 352
WIRE -448 400 -448 160
WIRE -208 400 -208 352
WIRE 816 432 816 368
WIRE 160 448 64 448
WIRE 560 448 480 448
WIRE 1008 448 1008 368
WIRE 1008 448 560 448
WIRE -80 464 -80 448
WIRE 560 464 560 448
WIRE -448 544 -448 464
WIRE -208 544 -208 464
WIRE -208 544 -448 544
WIRE -80 544 -80 528
WIRE -80 544 -208 544
WIRE 64 544 64 528
WIRE 64 544 -80 544
WIRE 320 544 320 496
WIRE 320 544 64 544
WIRE 560 544 320 544
WIRE 816 544 816 512
WIRE 816 544 560 544
WIRE 1104 544 1104 384
WIRE 1104 544 816 544
WIRE 1264 544 1264 384
WIRE 1264 544 1104 544
WIRE 320 656 320 544
FLAG 320 656 0
FLAG -32 32 0
FLAG 112 32 0
FLAG -304 -32 0
SYMBOL LTC1871 320 304 R0
SYMATTR InstName U1
SYMBOL ind 800 80 R0
SYMATTR InstName L1
SYMATTR Value 6.8µ
SYMBOL schottky 880 224 R270
WINDOW 0 32 32 VTop 2
WINDOW 3 0 32 VBottom 2
SYMATTR InstName D1
SYMATTR Value MBR735
SYMATTR Description Diode
SYMATTR Type diode
SYMBOL cap -464 400 R0
SYMATTR InstName C1
SYMATTR Value 4.7µ
SYMBOL res 48 432 R0
SYMATTR InstName RT1
SYMATTR Value 100k
SYMBOL res 544 448 R0
SYMATTR InstName R1
SYMATTR Value 12.4k
SYMBOL res -96 352 R0
SYMATTR InstName RC1
SYMATTR Value 24k
SYMBOL cap -96 464 R0
SYMATTR InstName C2
SYMATTR Value 2200p
SYMBOL cap -224 400 R0
SYMATTR InstName C3
SYMATTR Value 100p
SYMBOL nmos 768 272 R0
WINDOW 0 51 35 Left 2
SYMATTR InstName M1
SYMATTR Value IRF7811
SYMBOL polcap 1248 320 R0
WINDOW 40 28 62 Left 2
WINDOW 3 47 35 Left 2
SYMATTR SpiceLine2 x2
SYMATTR Value 68µ
SYMATTR InstName C4
SYMATTR SpiceLine Rser=.05
SYMBOL cap 1088 320 R0
WINDOW 3 41 34 Left 2
WINDOW 40 25 59 Left 2
SYMATTR Value 10µ
SYMATTR SpiceLine2 x2
SYMATTR InstName C5
SYMATTR SpiceLine Rser=1m
SYMBOL polcap -48 -64 R0
SYMATTR InstName C6
SYMATTR Value 560µ
SYMBOL cap 96 -64 R0
WINDOW 3 34 30 Left 2
WINDOW 39 24 55 Left 2
SYMATTR Value 10µ
SYMATTR SpiceLine x2
SYMATTR InstName C7
SYMBOL res 736 64 R90
WINDOW 0 0 56 VBottom 2
WINDOW 3 32 56 VTop 2
SYMATTR InstName R2
SYMATTR Value 1Meg
SYMBOL res 992 272 R0
SYMATTR InstName R3
SYMATTR Value 240k
SYMBOL res 800 416 R0
SYMATTR InstName R4
SYMATTR Value 5m
SYMBOL voltage -304 -128 R0
SYMATTR InstName V1
SYMATTR Value 12
SYMBOL LM7815 1520 208 R0
SYMATTR InstName X1
TEXT 40 -232 Left 2 !.tran 0 10 0 startup
