Version 4
SHEET 1 1940 680
WIRE 992 112 960 112
WIRE 1152 112 1104 112
WIRE 960 128 960 112
WIRE 960 128 848 128
WIRE 848 144 848 128
WIRE 848 144 576 144
WIRE 1152 160 1152 112
WIRE 1152 160 976 160
WIRE 576 176 576 144
WIRE 976 224 976 160
WIRE 976 224 720 224
WIRE 1008 256 960 256
WIRE 1280 256 1120 256
WIRE 576 288 576 256
WIRE 720 304 720 224
WIRE 784 304 720 304
WIRE 960 304 960 256
WIRE 960 304 896 304
WIRE 960 352 960 304
WIRE 1008 352 960 352
WIRE 1280 352 1120 352
FLAG 576 288 0
FLAG 1280 256 5V
FLAG 1280 352 15V
SYMBOL regulador 832 304 R0
SYMATTR InstName ReguladorLineal1
SYMBOL voltage 576 160 R0
SYMATTR InstName Fuente1
SYMATTR Value 12
SYMBOL LM7805 1056 256 R0
SYMATTR InstName LM1
SYMBOL LM7815 1056 352 R0
SYMATTR InstName LM2
SYMBOL step-up 1040 112 R0
SYMATTR InstName X1
TEXT 40 -232 Left 2 !.tran 0 10m 0 uic
TEXT 832 24 Left 2 ;Regulador de tension
RECTANGLE Normal 688 44 1208 408 2
