Version 4
SHEET 1 880 680
WIRE 464 112 336 112
WIRE 64 128 0 128
WIRE 128 128 64 128
WIRE 0 144 0 128
WIRE 384 144 336 144
WIRE 128 160 96 160
WIRE 64 176 64 128
WIRE 464 176 464 112
WIRE 464 176 336 176
WIRE 0 288 0 224
WIRE 32 288 0 288
WIRE 64 288 64 240
WIRE 64 288 32 288
WIRE 32 304 32 288
WIRE 96 304 96 160
WIRE 144 304 96 304
WIRE 192 304 144 304
WIRE 368 304 272 304
WIRE 384 304 384 144
WIRE 384 304 368 304
WIRE 432 304 384 304
WIRE 144 320 144 304
WIRE 368 320 368 304
WIRE 432 320 432 304
WIRE 144 416 144 384
WIRE 368 416 368 384
WIRE 368 416 144 416
WIRE 464 416 464 176
WIRE 464 416 368 416
FLAG 32 304 0
FLAG 464 416 Vout
FLAG 432 320 0
SYMBOL LM2576HV_TRANS 224 144 R0
SYMATTR InstName U1
SYMBOL cap 48 176 R0
SYMATTR InstName C1
SYMATTR Value 100µ
SYMBOL voltage 0 128 R0
WINDOW 123 0 0 Left 2
WINDOW 39 0 0 Left 2
SYMATTR InstName V1
SYMATTR Value 12
SYMBOL ind 176 320 R270
WINDOW 0 32 56 VTop 2
WINDOW 3 5 56 VBottom 2
SYMATTR InstName L1
SYMATTR Value 100µ
SYMBOL schottky 160 384 R180
WINDOW 0 24 64 Left 2
WINDOW 3 24 0 Left 2
SYMATTR InstName D1
SYMATTR Value 1N5819
SYMATTR Description Diode
SYMATTR Type diode
SYMBOL cap 352 320 R0
SYMATTR InstName C2
SYMATTR Value 100µ
TEXT -32 464 Left 2 !.tran 1m
